McPAT (version 1.0 of Aug, 2013) is computing the target processor...
 

McPAT (version 1.0 of Aug, 2013) results  (current print level is 5)
*****************************************************************************************
  Technology 45 nm
  Using Long Channel Devices When Appropriate
  Interconnect metal projection= aggressive interconnect technology projection
  Core clock Rate(MHz) 1000

*****************************************************************************************
Processor: 
  Area = 849.297 mm^2
  Peak Power = 340.606 W
  Total Leakage = 177.884 W
  Peak Dynamic = 162.723 W
  Subthreshold Leakage = 167.108 W
  Subthreshold Leakage with power gating = 67.6442 W
  Gate Leakage = 10.7758 W
  Runtime Dynamic = 23.618 W

  Total Cores: 32 cores 
  Device Type= ITRS high performance device type
    Area = 838.752 mm^2
    Peak Dynamic = 162.716 W
    Subthreshold Leakage = 166.156 W
    Subthreshold Leakage with power gating = 67.1392 W
    Gate Leakage = 10.729 W
    Runtime Dynamic = 23.6159 W

  Total L2s: 
  Device Type= ITRS high performance device type
    Area = 9.06635 mm^2
    Peak Dynamic = 0.00622387 W
    Subthreshold Leakage = 0.786837 W
    Subthreshold Leakage with power gating = 0.378321 W
    Gate Leakage = 0.0309281 W
    Runtime Dynamic = 0.00210734 W

  Total NoCs (Network/Bus): 
  Device Type= ITRS high performance device type
    Area = 1.47878 mm^2
    Peak Dynamic = 0 W
    Subthreshold Leakage = 0.165039 W
    Subthreshold Leakage with power gating = 0.0618895 W
    Gate Leakage = 0.0158266 W
    Runtime Dynamic = 0 W

*****************************************************************************************
Core:
      Area = 26.211 mm^2
      Peak Dynamic = 10.9372 W
      Subthreshold Leakage = 5.19237 W
      Subthreshold Leakage with power gating = 2.0981 W
      Gate Leakage = 0.335282 W
      Runtime Dynamic = 4.76582 W

      Instruction Fetch Unit:
        Area = 4.50679 mm^2
        Peak Dynamic = 2.87727 W
        Subthreshold Leakage = 0.798298 W
        Subthreshold Leakage with power gating = 0.356801 W
        Gate Leakage = 0.0429985 W
        Runtime Dynamic = 0.338121 W

          Instruction Cache:
            Area = 1.79307 mm^2
            Peak Dynamic = 1.92407 W
            Subthreshold Leakage = 0.232732 W
            Subthreshold Leakage with power gating = 0.128644 W
            Gate Leakage = 0.0138816 W
            Runtime Dynamic = 0.0531297 W

          Branch Target Buffer:
            Area = 0.64954 mm^2
            Peak Dynamic = 0.0668673 W
            Subthreshold Leakage = 0.0811682 W
            Subthreshold Leakage with power gating = 0.0435357 W
            Gate Leakage = 0.00272758 W
            Runtime Dynamic = 0.00407687 W

          Branch Predictor:
            Area = 0.138516 mm^2
            Peak Dynamic = 0.0224751 W
            Subthreshold Leakage = 0.0199703 W
            Subthreshold Leakage with power gating = 0.0103282 W
            Gate Leakage = 0.000757657 W
            Runtime Dynamic = 0.00213525 W

              Global Predictor:
                Area = 0.0435221 mm^2
                Peak Dynamic = 0.00634701 W
                Subthreshold Leakage = 0.00759719 W
                Subthreshold Leakage with power gating = 0.0039236 W
                Gate Leakage = 0.000278362 W
                Runtime Dynamic = 0.000414677 W

              Local Predictor:
              L1_Local Predictor:
                Area = 0.0257064 mm^2
                Peak Dynamic = 0.00535995 W
                Subthreshold Leakage = 0.00384344 W
                Subthreshold Leakage with power gating = 0.00198631 W
                Gate Leakage = 0.000154548 W
                Runtime Dynamic = 0.000358357 W

              L2_Local Predictor:
                Area = 0.0151917 mm^2
                Peak Dynamic = 0.00198288 W
                Subthreshold Leakage = 0.00181347 W
                Subthreshold Leakage with power gating = 0.000957045 W
                Gate Leakage = 8.00196e-05 W
                Runtime Dynamic = 0.00013718 W

              Chooser:
                Area = 0.0435221 mm^2
                Peak Dynamic = 0.00634701 W
                Subthreshold Leakage = 0.00759719 W
                Subthreshold Leakage with power gating = 0.0039236 W
                Gate Leakage = 0.000278362 W
                Runtime Dynamic = 0.000414677 W

              RAS:
                Area = 0.0105732 mm^2
                Peak Dynamic = 0.00442114 W
                Subthreshold Leakage = 0.000932505 W
                Subthreshold Leakage with power gating = 0.000494733 W
                Gate Leakage = 4.63858e-05 W
                Runtime Dynamic = 0.000947533 W

          Instruction Buffer:
            Area = 0.0226323 mm^2
            Peak Dynamic = 0.22813 W
            Subthreshold Leakage = 0.00151885 W
            Subthreshold Leakage with power gating = 0.000701682 W
            Gate Leakage = 6.83558e-05 W
            Runtime Dynamic = 0.0634101 W

          Instruction Decoder:
            Area = 1.85799 mm^2
            Peak Dynamic = 0.516556 W
            Subthreshold Leakage = 0.442943 W
            Subthreshold Leakage with power gating = 0.166104 W
            Gate Leakage = 0.0222493 W
            Runtime Dynamic = 0.215369 W

      Renaming Unit:
        Area = 0.369768 mm^2
        Peak Dynamic = 1.71492 W
        Subthreshold Leakage = 0.070483 W
        Subthreshold Leakage with power gating = 0.0362779 W
        Gate Leakage = 0.00863632 W
        Runtime Dynamic = 0.210572 W

          Int Front End RAT:
            Area = 0.114751 mm^2
            Peak Dynamic = 0.326861 W
            Subthreshold Leakage = 0.00611897 W
            Subthreshold Leakage with power gating = 0.00348781 W
            Gate Leakage = 0.00038343 W
            Runtime Dynamic = 0.132552 W

          FP Front End RAT:
            Area = 0.168486 mm^2
            Peak Dynamic = 1.2538 W
            Subthreshold Leakage = 0.0437281 W
            Subthreshold Leakage with power gating = 0.024925 W
            Gate Leakage = 0.00489731 W
            Runtime Dynamic = 0.0646609 W

          Free List:
            Area = 0.0414755 mm^2
            Peak Dynamic = 0.0150874 W
            Subthreshold Leakage = 0.000670426 W
            Subthreshold Leakage with power gating = 0.000377987 W
            Gate Leakage = 4.15911e-05 W
            Runtime Dynamic = 0.0133589 W

      Load Store Unit:
        Area = 8.54154 mm^2
        Peak Dynamic = 3.60877 W
        Subthreshold Leakage = 0.569794 W
        Subthreshold Leakage with power gating = 0.270964 W
        Gate Leakage = 0.0325937 W
        Runtime Dynamic = 1.67455 W

          Data Cache:
            Area = 6.84535 mm^2
            Peak Dynamic = 3.28885 W
            Subthreshold Leakage = 0.527675 W
            Subthreshold Leakage with power gating = 0.25085 W
            Gate Leakage = 0.0279261 W
            Runtime Dynamic = 1.35913 W

          LoadQ:
            Area = 0.0836782 mm^2
            Peak Dynamic = 0.0913555 W
            Subthreshold Leakage = 0.00941961 W
            Subthreshold Leakage with power gating = 0.00536918 W
            Gate Leakage = 0.00059896 W
            Runtime Dynamic = 0.0913556 W

          StoreQ:
            Area = 0.100468 mm^2
            Peak Dynamic = 0.112033 W
            Subthreshold Leakage = 0.0127338 W
            Subthreshold Leakage with power gating = 0.00725825 W
            Gate Leakage = 0.000754661 W
            Runtime Dynamic = 0.224066 W

      Memory Management Unit:
        Area = 0.19411 mm^2
        Peak Dynamic = 0.245152 W
        Subthreshold Leakage = 0.045089 W
        Subthreshold Leakage with power gating = 0.0218074 W
        Gate Leakage = 0.00476399 W
        Runtime Dynamic = 0.0859343 W

          Itlb:
            Area = 0.0610827 mm^2
            Peak Dynamic = 0.0473508 W
            Subthreshold Leakage = 0.00955352 W
            Subthreshold Leakage with power gating = 0.00544551 W
            Gate Leakage = 0.000562721 W
            Runtime Dynamic = 0.00589913 W

          Dtlb:
            Area = 0.0879726 mm^2
            Peak Dynamic = 0.079948 W
            Subthreshold Leakage = 0.0155699 W
            Subthreshold Leakage with power gating = 0.00887485 W
            Gate Leakage = 0.00088729 W
            Runtime Dynamic = 0.080035 W

      Execution Unit:
        Area = 8.20208 mm^2
        Peak Dynamic = 2.49111 W
        Subthreshold Leakage = 1.83087 W
        Subthreshold Leakage with power gating = 0.70806 W
        Gate Leakage = 0.122433 W
        Runtime Dynamic = 2.45664 W

          Register Files:
            Area = 0.570804 mm^2
            Peak Dynamic = 0.0886307 W
            Subthreshold Leakage = 0.0101387 W
            Subthreshold Leakage with power gating = 0.00423643 W
            Gate Leakage = 0.000622708 W
            Runtime Dynamic = 0.07488 W

              Integer RF:
                Area = 0.362673 mm^2
                Peak Dynamic = 0.0700967 W
                Subthreshold Leakage = 0.00614175 W
                Subthreshold Leakage with power gating = 0.00246675 W
                Gate Leakage = 0.00038992 W
                Runtime Dynamic = 0.0659611 W

              Floating Point RF:
                Area = 0.208131 mm^2
                Peak Dynamic = 0.0185341 W
                Subthreshold Leakage = 0.00399698 W
                Subthreshold Leakage with power gating = 0.00176968 W
                Gate Leakage = 0.000232788 W
                Runtime Dynamic = 0.00891894 W

          Instruction Scheduler:
            Area = 2.17927 mm^2
            Peak Dynamic = 1.82248 W
            Subthreshold Leakage = 0.114878 W
            Subthreshold Leakage with power gating = 0.0641291 W
            Gate Leakage = 0.00730101 W
            Runtime Dynamic = 0.954882 W

              Instruction Window:
                Area = 1.00996 mm^2
                Peak Dynamic = 0.781622 W
                Subthreshold Leakage = 0.0800117 W
                Subthreshold Leakage with power gating = 0.0455351 W
                Gate Leakage = 0.00529112 W
                Runtime Dynamic = 0.426043 W

              FP Instruction Window:
                Area = 0.328073 mm^2
                Peak Dynamic = 0.454803 W
                Subthreshold Leakage = 0.017004 W
                Subthreshold Leakage with power gating = 0.00962066 W
                Gate Leakage = 0.00115349 W
                Runtime Dynamic = 0.246035 W

              ROB:
                Area = 0.841232 mm^2
                Peak Dynamic = 0.586059 W
                Subthreshold Leakage = 0.0178624 W
                Subthreshold Leakage with power gating = 0.00897339 W
                Gate Leakage = 0.000856399 W
                Runtime Dynamic = 0.282804 W

          Integer ALUs (Count: 6 ):
            Area = 0.47087 mm^2
            Peak Dynamic = 0.244647 W
            Subthreshold Leakage = 0.40222 W
            Subthreshold Leakage with power gating = 0.150833 W
            Gate Leakage = 0.0265291 W
            Runtime Dynamic = 0.347669 W

          Floating Point Units (FPUs) (Count: 2 ):
            Area = 4.6585 mm^2
            Peak Dynamic = 0.117675 W
            Subthreshold Leakage = 0.994829 W
            Subthreshold Leakage with power gating = 0.373061 W
            Gate Leakage = 0.0656156 W
            Runtime Dynamic = 0.34719 W

          Complex ALUs (Mul/Div) (Count: 1 ):
            Area = 0.235435 mm^2
            Peak Dynamic = 0.0218971 W
            Subthreshold Leakage = 0.20111 W
            Subthreshold Leakage with power gating = 0.0754163 W
            Gate Leakage = 0.0132646 W
            Runtime Dynamic = 0.215371 W

          Results Broadcast Bus:
            Area Overhead = 0.042151 mm^2
            Peak Dynamic = 0.164699 W
            Subthreshold Leakage = 0.0877271 W
            Subthreshold Leakage with power gating = 0.0328977 W
            Gate Leakage = 0.00578619 W
            Runtime Dynamic = 0.516647 W

*****************************************************************************************
Core:
      Area = 26.211 mm^2
      Peak Dynamic = 4.8961 W
      Subthreshold Leakage = 5.19237 W
      Subthreshold Leakage with power gating = 2.0981 W
      Gate Leakage = 0.335282 W
      Runtime Dynamic = 0.608067 W

      Instruction Fetch Unit:
        Area = 4.50679 mm^2
        Peak Dynamic = 0.834028 W
        Subthreshold Leakage = 0.798298 W
        Subthreshold Leakage with power gating = 0.356801 W
        Gate Leakage = 0.0429985 W
        Runtime Dynamic = 1.76368e-07 W

          Instruction Cache:
            Area = 1.79307 mm^2
            Peak Dynamic = 0 W
            Subthreshold Leakage = 0.232732 W
            Subthreshold Leakage with power gating = 0.128644 W
            Gate Leakage = 0.0138816 W
            Runtime Dynamic = 0 W

          Branch Target Buffer:
            Area = 0.64954 mm^2
            Peak Dynamic = 0.0668673 W
            Subthreshold Leakage = 0.0811682 W
            Subthreshold Leakage with power gating = 0.0435357 W
            Gate Leakage = 0.00272758 W
            Runtime Dynamic = 0 W

          Branch Predictor:
            Area = 0.138516 mm^2
            Peak Dynamic = 0.0224751 W
            Subthreshold Leakage = 0.0199703 W
            Subthreshold Leakage with power gating = 0.0103282 W
            Gate Leakage = 0.000757657 W
            Runtime Dynamic = 0 W

              Global Predictor:
                Area = 0.0435221 mm^2
                Peak Dynamic = 0.00634701 W
                Subthreshold Leakage = 0.00759719 W
                Subthreshold Leakage with power gating = 0.0039236 W
                Gate Leakage = 0.000278362 W
                Runtime Dynamic = 0 W

              Local Predictor:
              L1_Local Predictor:
                Area = 0.0257064 mm^2
                Peak Dynamic = 0.00535995 W
                Subthreshold Leakage = 0.00384344 W
                Subthreshold Leakage with power gating = 0.00198631 W
                Gate Leakage = 0.000154548 W
                Runtime Dynamic = 0 W

              L2_Local Predictor:
                Area = 0.0151917 mm^2
                Peak Dynamic = 0.00198288 W
                Subthreshold Leakage = 0.00181347 W
                Subthreshold Leakage with power gating = 0.000957045 W
                Gate Leakage = 8.00196e-05 W
                Runtime Dynamic = 0 W

              Chooser:
                Area = 0.0435221 mm^2
                Peak Dynamic = 0.00634701 W
                Subthreshold Leakage = 0.00759719 W
                Subthreshold Leakage with power gating = 0.0039236 W
                Gate Leakage = 0.000278362 W
                Runtime Dynamic = 0 W

              RAS:
                Area = 0.0105732 mm^2
                Peak Dynamic = 0.00442114 W
                Subthreshold Leakage = 0.000932505 W
                Subthreshold Leakage with power gating = 0.000494733 W
                Gate Leakage = 4.63858e-05 W
                Runtime Dynamic = 0 W

          Instruction Buffer:
            Area = 0.0226323 mm^2
            Peak Dynamic = 0.22813 W
            Subthreshold Leakage = 0.00151885 W
            Subthreshold Leakage with power gating = 0.000701682 W
            Gate Leakage = 6.83558e-05 W
            Runtime Dynamic = 0 W

          Instruction Decoder:
            Area = 1.85799 mm^2
            Peak Dynamic = 0.516556 W
            Subthreshold Leakage = 0.442943 W
            Subthreshold Leakage with power gating = 0.166104 W
            Gate Leakage = 0.0222493 W
            Runtime Dynamic = 0 W

      Renaming Unit:
        Area = 0.369768 mm^2
        Peak Dynamic = 1.71492 W
        Subthreshold Leakage = 0.070483 W
        Subthreshold Leakage with power gating = 0.0362779 W
        Gate Leakage = 0.00863632 W
        Runtime Dynamic = 1.76368e-07 W

          Int Front End RAT:
            Area = 0.114751 mm^2
            Peak Dynamic = 0.326861 W
            Subthreshold Leakage = 0.00611897 W
            Subthreshold Leakage with power gating = 0.00348781 W
            Gate Leakage = 0.00038343 W
            Runtime Dynamic = 0 W

          FP Front End RAT:
            Area = 0.168486 mm^2
            Peak Dynamic = 1.2538 W
            Subthreshold Leakage = 0.0437281 W
            Subthreshold Leakage with power gating = 0.024925 W
            Gate Leakage = 0.00489731 W
            Runtime Dynamic = 0 W

          Free List:
            Area = 0.0414755 mm^2
            Peak Dynamic = 0.0150874 W
            Subthreshold Leakage = 0.000670426 W
            Subthreshold Leakage with power gating = 0.000377987 W
            Gate Leakage = 4.15911e-05 W
            Runtime Dynamic = 0 W

      Load Store Unit:
        Area = 8.54154 mm^2
        Peak Dynamic = 0.465083 W
        Subthreshold Leakage = 0.569794 W
        Subthreshold Leakage with power gating = 0.270964 W
        Gate Leakage = 0.0325937 W
        Runtime Dynamic = 1.76368e-07 W

          Data Cache:
            Area = 6.84535 mm^2
            Peak Dynamic = 0.465083 W
            Subthreshold Leakage = 0.527675 W
            Subthreshold Leakage with power gating = 0.25085 W
            Gate Leakage = 0.0279261 W
            Runtime Dynamic = 0 W

          LoadQ:
            Area = 0.0836782 mm^2
            Peak Dynamic = 0 W
            Subthreshold Leakage = 0.00941961 W
            Subthreshold Leakage with power gating = 0.00536918 W
            Gate Leakage = 0.00059896 W
            Runtime Dynamic = 0 W

          StoreQ:
            Area = 0.100468 mm^2
            Peak Dynamic = 0 W
            Subthreshold Leakage = 0.0127338 W
            Subthreshold Leakage with power gating = 0.00725825 W
            Gate Leakage = 0.000754661 W
            Runtime Dynamic = 0 W

      Memory Management Unit:
        Area = 0.19411 mm^2
        Peak Dynamic = 0.0595858 W
        Subthreshold Leakage = 0.045089 W
        Subthreshold Leakage with power gating = 0.0218074 W
        Gate Leakage = 0.00476399 W
        Runtime Dynamic = 1.76368e-07 W

          Itlb:
            Area = 0.0610827 mm^2
            Peak Dynamic = 0 W
            Subthreshold Leakage = 0.00955352 W
            Subthreshold Leakage with power gating = 0.00544551 W
            Gate Leakage = 0.000562721 W
            Runtime Dynamic = 0 W

          Dtlb:
            Area = 0.0879726 mm^2
            Peak Dynamic = 0 W
            Subthreshold Leakage = 0.0155699 W
            Subthreshold Leakage with power gating = 0.00887485 W
            Gate Leakage = 0.00088729 W
            Runtime Dynamic = 0 W

      Execution Unit:
        Area = 8.20208 mm^2
        Peak Dynamic = 1.82248 W
        Subthreshold Leakage = 1.83087 W
        Subthreshold Leakage with power gating = 0.70806 W
        Gate Leakage = 0.122433 W
        Runtime Dynamic = 0.608066 W

          Register Files:
            Area = 0.570804 mm^2
            Peak Dynamic = 0 W
            Subthreshold Leakage = 0.0101387 W
            Subthreshold Leakage with power gating = 0.00423643 W
            Gate Leakage = 0.000622708 W
            Runtime Dynamic = 0 W

              Integer RF:
                Area = 0.362673 mm^2
                Peak Dynamic = 0 W
                Subthreshold Leakage = 0.00614175 W
                Subthreshold Leakage with power gating = 0.00246675 W
                Gate Leakage = 0.00038992 W
                Runtime Dynamic = 0 W

              Floating Point RF:
                Area = 0.208131 mm^2
                Peak Dynamic = 0 W
                Subthreshold Leakage = 0.00399698 W
                Subthreshold Leakage with power gating = 0.00176968 W
                Gate Leakage = 0.000232788 W
                Runtime Dynamic = 0 W

          Instruction Scheduler:
            Area = 2.17927 mm^2
            Peak Dynamic = 1.82248 W
            Subthreshold Leakage = 0.114878 W
            Subthreshold Leakage with power gating = 0.0641291 W
            Gate Leakage = 0.00730101 W
            Runtime Dynamic = 0 W

              Instruction Window:
                Area = 1.00996 mm^2
                Peak Dynamic = 0.781622 W
                Subthreshold Leakage = 0.0800117 W
                Subthreshold Leakage with power gating = 0.0455351 W
                Gate Leakage = 0.00529112 W
                Runtime Dynamic = 0 W

              FP Instruction Window:
                Area = 0.328073 mm^2
                Peak Dynamic = 0.454803 W
                Subthreshold Leakage = 0.017004 W
                Subthreshold Leakage with power gating = 0.00962066 W
                Gate Leakage = 0.00115349 W
                Runtime Dynamic = 0 W

              ROB:
                Area = 0.841232 mm^2
                Peak Dynamic = 0.586059 W
                Subthreshold Leakage = 0.0178624 W
                Subthreshold Leakage with power gating = 0.00897339 W
                Gate Leakage = 0.000856399 W
                Runtime Dynamic = 0 W

          Integer ALUs (Count: 6 ):
            Area = 0.47087 mm^2
            Peak Dynamic = 0 W
            Subthreshold Leakage = 0.40222 W
            Subthreshold Leakage with power gating = 0.150833 W
            Gate Leakage = 0.0265291 W
            Runtime Dynamic = 0.101344 W

          Floating Point Units (FPUs) (Count: 2 ):
            Area = 4.6585 mm^2
            Peak Dynamic = 0 W
            Subthreshold Leakage = 0.994829 W
            Subthreshold Leakage with power gating = 0.373061 W
            Gate Leakage = 0.0656156 W
            Runtime Dynamic = 0.304033 W

          Complex ALUs (Mul/Div) (Count: 1 ):
            Area = 0.235435 mm^2
            Peak Dynamic = 0 W
            Subthreshold Leakage = 0.20111 W
            Subthreshold Leakage with power gating = 0.0754163 W
            Gate Leakage = 0.0132646 W
            Runtime Dynamic = 0.202689 W

          Results Broadcast Bus:
            Area Overhead = 0.042151 mm^2
            Peak Dynamic = 0 W
            Subthreshold Leakage = 0.0877271 W
            Subthreshold Leakage with power gating = 0.0328977 W
            Gate Leakage = 0.00578619 W
            Runtime Dynamic = 0 W

*****************************************************************************************
Core:
      Area = 26.211 mm^2
      Peak Dynamic = 4.8961 W
      Subthreshold Leakage = 5.19237 W
      Subthreshold Leakage with power gating = 2.0981 W
      Gate Leakage = 0.335282 W
      Runtime Dynamic = 0.608067 W

      Instruction Fetch Unit:
        Area = 4.50679 mm^2
        Peak Dynamic = 0.834028 W
        Subthreshold Leakage = 0.798298 W
        Subthreshold Leakage with power gating = 0.356801 W
        Gate Leakage = 0.0429985 W
        Runtime Dynamic = 1.76368e-07 W

          Instruction Cache:
            Area = 1.79307 mm^2
            Peak Dynamic = 0 W
            Subthreshold Leakage = 0.232732 W
            Subthreshold Leakage with power gating = 0.128644 W
            Gate Leakage = 0.0138816 W
            Runtime Dynamic = 0 W

          Branch Target Buffer:
            Area = 0.64954 mm^2
            Peak Dynamic = 0.0668673 W
            Subthreshold Leakage = 0.0811682 W
            Subthreshold Leakage with power gating = 0.0435357 W
            Gate Leakage = 0.00272758 W
            Runtime Dynamic = 0 W

          Branch Predictor:
            Area = 0.138516 mm^2
            Peak Dynamic = 0.0224751 W
            Subthreshold Leakage = 0.0199703 W
            Subthreshold Leakage with power gating = 0.0103282 W
            Gate Leakage = 0.000757657 W
            Runtime Dynamic = 0 W

              Global Predictor:
                Area = 0.0435221 mm^2
                Peak Dynamic = 0.00634701 W
                Subthreshold Leakage = 0.00759719 W
                Subthreshold Leakage with power gating = 0.0039236 W
                Gate Leakage = 0.000278362 W
                Runtime Dynamic = 0 W

              Local Predictor:
              L1_Local Predictor:
                Area = 0.0257064 mm^2
                Peak Dynamic = 0.00535995 W
                Subthreshold Leakage = 0.00384344 W
                Subthreshold Leakage with power gating = 0.00198631 W
                Gate Leakage = 0.000154548 W
                Runtime Dynamic = 0 W

              L2_Local Predictor:
                Area = 0.0151917 mm^2
                Peak Dynamic = 0.00198288 W
                Subthreshold Leakage = 0.00181347 W
                Subthreshold Leakage with power gating = 0.000957045 W
                Gate Leakage = 8.00196e-05 W
                Runtime Dynamic = 0 W

              Chooser:
                Area = 0.0435221 mm^2
                Peak Dynamic = 0.00634701 W
                Subthreshold Leakage = 0.00759719 W
                Subthreshold Leakage with power gating = 0.0039236 W
                Gate Leakage = 0.000278362 W
                Runtime Dynamic = 0 W

              RAS:
                Area = 0.0105732 mm^2
                Peak Dynamic = 0.00442114 W
                Subthreshold Leakage = 0.000932505 W
                Subthreshold Leakage with power gating = 0.000494733 W
                Gate Leakage = 4.63858e-05 W
                Runtime Dynamic = 0 W

          Instruction Buffer:
            Area = 0.0226323 mm^2
            Peak Dynamic = 0.22813 W
            Subthreshold Leakage = 0.00151885 W
            Subthreshold Leakage with power gating = 0.000701682 W
            Gate Leakage = 6.83558e-05 W
            Runtime Dynamic = 0 W

          Instruction Decoder:
            Area = 1.85799 mm^2
            Peak Dynamic = 0.516556 W
            Subthreshold Leakage = 0.442943 W
            Subthreshold Leakage with power gating = 0.166104 W
            Gate Leakage = 0.0222493 W
            Runtime Dynamic = 0 W

      Renaming Unit:
        Area = 0.369768 mm^2
        Peak Dynamic = 1.71492 W
        Subthreshold Leakage = 0.070483 W
        Subthreshold Leakage with power gating = 0.0362779 W
        Gate Leakage = 0.00863632 W
        Runtime Dynamic = 1.76368e-07 W

          Int Front End RAT:
            Area = 0.114751 mm^2
            Peak Dynamic = 0.326861 W
            Subthreshold Leakage = 0.00611897 W
            Subthreshold Leakage with power gating = 0.00348781 W
            Gate Leakage = 0.00038343 W
            Runtime Dynamic = 0 W

          FP Front End RAT:
            Area = 0.168486 mm^2
            Peak Dynamic = 1.2538 W
            Subthreshold Leakage = 0.0437281 W
            Subthreshold Leakage with power gating = 0.024925 W
            Gate Leakage = 0.00489731 W
            Runtime Dynamic = 0 W

          Free List:
            Area = 0.0414755 mm^2
            Peak Dynamic = 0.0150874 W
            Subthreshold Leakage = 0.000670426 W
            Subthreshold Leakage with power gating = 0.000377987 W
            Gate Leakage = 4.15911e-05 W
            Runtime Dynamic = 0 W

      Load Store Unit:
        Area = 8.54154 mm^2
        Peak Dynamic = 0.465083 W
        Subthreshold Leakage = 0.569794 W
        Subthreshold Leakage with power gating = 0.270964 W
        Gate Leakage = 0.0325937 W
        Runtime Dynamic = 1.76368e-07 W

          Data Cache:
            Area = 6.84535 mm^2
            Peak Dynamic = 0.465083 W
            Subthreshold Leakage = 0.527675 W
            Subthreshold Leakage with power gating = 0.25085 W
            Gate Leakage = 0.0279261 W
            Runtime Dynamic = 0 W

          LoadQ:
            Area = 0.0836782 mm^2
            Peak Dynamic = 0 W
            Subthreshold Leakage = 0.00941961 W
            Subthreshold Leakage with power gating = 0.00536918 W
            Gate Leakage = 0.00059896 W
            Runtime Dynamic = 0 W

          StoreQ:
            Area = 0.100468 mm^2
            Peak Dynamic = 0 W
            Subthreshold Leakage = 0.0127338 W
            Subthreshold Leakage with power gating = 0.00725825 W
            Gate Leakage = 0.000754661 W
            Runtime Dynamic = 0 W

      Memory Management Unit:
        Area = 0.19411 mm^2
        Peak Dynamic = 0.0595858 W
        Subthreshold Leakage = 0.045089 W
        Subthreshold Leakage with power gating = 0.0218074 W
        Gate Leakage = 0.00476399 W
        Runtime Dynamic = 1.76368e-07 W

          Itlb:
            Area = 0.0610827 mm^2
            Peak Dynamic = 0 W
            Subthreshold Leakage = 0.00955352 W
            Subthreshold Leakage with power gating = 0.00544551 W
            Gate Leakage = 0.000562721 W
            Runtime Dynamic = 0 W

          Dtlb:
            Area = 0.0879726 mm^2
            Peak Dynamic = 0 W
            Subthreshold Leakage = 0.0155699 W
            Subthreshold Leakage with power gating = 0.00887485 W
            Gate Leakage = 0.00088729 W
            Runtime Dynamic = 0 W

      Execution Unit:
        Area = 8.20208 mm^2
        Peak Dynamic = 1.82248 W
        Subthreshold Leakage = 1.83087 W
        Subthreshold Leakage with power gating = 0.70806 W
        Gate Leakage = 0.122433 W
        Runtime Dynamic = 0.608066 W

          Register Files:
            Area = 0.570804 mm^2
            Peak Dynamic = 0 W
            Subthreshold Leakage = 0.0101387 W
            Subthreshold Leakage with power gating = 0.00423643 W
            Gate Leakage = 0.000622708 W
            Runtime Dynamic = 0 W

              Integer RF:
                Area = 0.362673 mm^2
                Peak Dynamic = 0 W
                Subthreshold Leakage = 0.00614175 W
                Subthreshold Leakage with power gating = 0.00246675 W
                Gate Leakage = 0.00038992 W
                Runtime Dynamic = 0 W

              Floating Point RF:
                Area = 0.208131 mm^2
                Peak Dynamic = 0 W
                Subthreshold Leakage = 0.00399698 W
                Subthreshold Leakage with power gating = 0.00176968 W
                Gate Leakage = 0.000232788 W
                Runtime Dynamic = 0 W

          Instruction Scheduler:
            Area = 2.17927 mm^2
            Peak Dynamic = 1.82248 W
            Subthreshold Leakage = 0.114878 W
            Subthreshold Leakage with power gating = 0.0641291 W
            Gate Leakage = 0.00730101 W
            Runtime Dynamic = 0 W

              Instruction Window:
                Area = 1.00996 mm^2
                Peak Dynamic = 0.781622 W
                Subthreshold Leakage = 0.0800117 W
                Subthreshold Leakage with power gating = 0.0455351 W
                Gate Leakage = 0.00529112 W
                Runtime Dynamic = 0 W

              FP Instruction Window:
                Area = 0.328073 mm^2
                Peak Dynamic = 0.454803 W
                Subthreshold Leakage = 0.017004 W
                Subthreshold Leakage with power gating = 0.00962066 W
                Gate Leakage = 0.00115349 W
                Runtime Dynamic = 0 W

              ROB:
                Area = 0.841232 mm^2
                Peak Dynamic = 0.586059 W
                Subthreshold Leakage = 0.0178624 W
                Subthreshold Leakage with power gating = 0.00897339 W
                Gate Leakage = 0.000856399 W
                Runtime Dynamic = 0 W

          Integer ALUs (Count: 6 ):
            Area = 0.47087 mm^2
            Peak Dynamic = 0 W
            Subthreshold Leakage = 0.40222 W
            Subthreshold Leakage with power gating = 0.150833 W
            Gate Leakage = 0.0265291 W
            Runtime Dynamic = 0.101344 W

          Floating Point Units (FPUs) (Count: 2 ):
            Area = 4.6585 mm^2
            Peak Dynamic = 0 W
            Subthreshold Leakage = 0.994829 W
            Subthreshold Leakage with power gating = 0.373061 W
            Gate Leakage = 0.0656156 W
            Runtime Dynamic = 0.304033 W

          Complex ALUs (Mul/Div) (Count: 1 ):
            Area = 0.235435 mm^2
            Peak Dynamic = 0 W
            Subthreshold Leakage = 0.20111 W
            Subthreshold Leakage with power gating = 0.0754163 W
            Gate Leakage = 0.0132646 W
            Runtime Dynamic = 0.202689 W

          Results Broadcast Bus:
            Area Overhead = 0.042151 mm^2
            Peak Dynamic = 0 W
            Subthreshold Leakage = 0.0877271 W
            Subthreshold Leakage with power gating = 0.0328977 W
            Gate Leakage = 0.00578619 W
            Runtime Dynamic = 0 W

*****************************************************************************************
Core:
      Area = 26.211 mm^2
      Peak Dynamic = 4.8961 W
      Subthreshold Leakage = 5.19237 W
      Subthreshold Leakage with power gating = 2.0981 W
      Gate Leakage = 0.335282 W
      Runtime Dynamic = 0.608067 W

      Instruction Fetch Unit:
        Area = 4.50679 mm^2
        Peak Dynamic = 0.834028 W
        Subthreshold Leakage = 0.798298 W
        Subthreshold Leakage with power gating = 0.356801 W
        Gate Leakage = 0.0429985 W
        Runtime Dynamic = 1.76368e-07 W

          Instruction Cache:
            Area = 1.79307 mm^2
            Peak Dynamic = 0 W
            Subthreshold Leakage = 0.232732 W
            Subthreshold Leakage with power gating = 0.128644 W
            Gate Leakage = 0.0138816 W
            Runtime Dynamic = 0 W

          Branch Target Buffer:
            Area = 0.64954 mm^2
            Peak Dynamic = 0.0668673 W
            Subthreshold Leakage = 0.0811682 W
            Subthreshold Leakage with power gating = 0.0435357 W
            Gate Leakage = 0.00272758 W
            Runtime Dynamic = 0 W

          Branch Predictor:
            Area = 0.138516 mm^2
            Peak Dynamic = 0.0224751 W
            Subthreshold Leakage = 0.0199703 W
            Subthreshold Leakage with power gating = 0.0103282 W
            Gate Leakage = 0.000757657 W
            Runtime Dynamic = 0 W

              Global Predictor:
                Area = 0.0435221 mm^2
                Peak Dynamic = 0.00634701 W
                Subthreshold Leakage = 0.00759719 W
                Subthreshold Leakage with power gating = 0.0039236 W
                Gate Leakage = 0.000278362 W
                Runtime Dynamic = 0 W

              Local Predictor:
              L1_Local Predictor:
                Area = 0.0257064 mm^2
                Peak Dynamic = 0.00535995 W
                Subthreshold Leakage = 0.00384344 W
                Subthreshold Leakage with power gating = 0.00198631 W
                Gate Leakage = 0.000154548 W
                Runtime Dynamic = 0 W

              L2_Local Predictor:
                Area = 0.0151917 mm^2
                Peak Dynamic = 0.00198288 W
                Subthreshold Leakage = 0.00181347 W
                Subthreshold Leakage with power gating = 0.000957045 W
                Gate Leakage = 8.00196e-05 W
                Runtime Dynamic = 0 W

              Chooser:
                Area = 0.0435221 mm^2
                Peak Dynamic = 0.00634701 W
                Subthreshold Leakage = 0.00759719 W
                Subthreshold Leakage with power gating = 0.0039236 W
                Gate Leakage = 0.000278362 W
                Runtime Dynamic = 0 W

              RAS:
                Area = 0.0105732 mm^2
                Peak Dynamic = 0.00442114 W
                Subthreshold Leakage = 0.000932505 W
                Subthreshold Leakage with power gating = 0.000494733 W
                Gate Leakage = 4.63858e-05 W
                Runtime Dynamic = 0 W

          Instruction Buffer:
            Area = 0.0226323 mm^2
            Peak Dynamic = 0.22813 W
            Subthreshold Leakage = 0.00151885 W
            Subthreshold Leakage with power gating = 0.000701682 W
            Gate Leakage = 6.83558e-05 W
            Runtime Dynamic = 0 W

          Instruction Decoder:
            Area = 1.85799 mm^2
            Peak Dynamic = 0.516556 W
            Subthreshold Leakage = 0.442943 W
            Subthreshold Leakage with power gating = 0.166104 W
            Gate Leakage = 0.0222493 W
            Runtime Dynamic = 0 W

      Renaming Unit:
        Area = 0.369768 mm^2
        Peak Dynamic = 1.71492 W
        Subthreshold Leakage = 0.070483 W
        Subthreshold Leakage with power gating = 0.0362779 W
        Gate Leakage = 0.00863632 W
        Runtime Dynamic = 1.76368e-07 W

          Int Front End RAT:
            Area = 0.114751 mm^2
            Peak Dynamic = 0.326861 W
            Subthreshold Leakage = 0.00611897 W
            Subthreshold Leakage with power gating = 0.00348781 W
            Gate Leakage = 0.00038343 W
            Runtime Dynamic = 0 W

          FP Front End RAT:
            Area = 0.168486 mm^2
            Peak Dynamic = 1.2538 W
            Subthreshold Leakage = 0.0437281 W
            Subthreshold Leakage with power gating = 0.024925 W
            Gate Leakage = 0.00489731 W
            Runtime Dynamic = 0 W

          Free List:
            Area = 0.0414755 mm^2
            Peak Dynamic = 0.0150874 W
            Subthreshold Leakage = 0.000670426 W
            Subthreshold Leakage with power gating = 0.000377987 W
            Gate Leakage = 4.15911e-05 W
            Runtime Dynamic = 0 W

      Load Store Unit:
        Area = 8.54154 mm^2
        Peak Dynamic = 0.465083 W
        Subthreshold Leakage = 0.569794 W
        Subthreshold Leakage with power gating = 0.270964 W
        Gate Leakage = 0.0325937 W
        Runtime Dynamic = 1.76368e-07 W

          Data Cache:
            Area = 6.84535 mm^2
            Peak Dynamic = 0.465083 W
            Subthreshold Leakage = 0.527675 W
            Subthreshold Leakage with power gating = 0.25085 W
            Gate Leakage = 0.0279261 W
            Runtime Dynamic = 0 W

          LoadQ:
            Area = 0.0836782 mm^2
            Peak Dynamic = 0 W
            Subthreshold Leakage = 0.00941961 W
            Subthreshold Leakage with power gating = 0.00536918 W
            Gate Leakage = 0.00059896 W
            Runtime Dynamic = 0 W

          StoreQ:
            Area = 0.100468 mm^2
            Peak Dynamic = 0 W
            Subthreshold Leakage = 0.0127338 W
            Subthreshold Leakage with power gating = 0.00725825 W
            Gate Leakage = 0.000754661 W
            Runtime Dynamic = 0 W

      Memory Management Unit:
        Area = 0.19411 mm^2
        Peak Dynamic = 0.0595858 W
        Subthreshold Leakage = 0.045089 W
        Subthreshold Leakage with power gating = 0.0218074 W
        Gate Leakage = 0.00476399 W
        Runtime Dynamic = 1.76368e-07 W

          Itlb:
            Area = 0.0610827 mm^2
            Peak Dynamic = 0 W
            Subthreshold Leakage = 0.00955352 W
            Subthreshold Leakage with power gating = 0.00544551 W
            Gate Leakage = 0.000562721 W
            Runtime Dynamic = 0 W

          Dtlb:
            Area = 0.0879726 mm^2
            Peak Dynamic = 0 W
            Subthreshold Leakage = 0.0155699 W
            Subthreshold Leakage with power gating = 0.00887485 W
            Gate Leakage = 0.00088729 W
            Runtime Dynamic = 0 W

      Execution Unit:
        Area = 8.20208 mm^2
        Peak Dynamic = 1.82248 W
        Subthreshold Leakage = 1.83087 W
        Subthreshold Leakage with power gating = 0.70806 W
        Gate Leakage = 0.122433 W
        Runtime Dynamic = 0.608066 W

          Register Files:
            Area = 0.570804 mm^2
            Peak Dynamic = 0 W
            Subthreshold Leakage = 0.0101387 W
            Subthreshold Leakage with power gating = 0.00423643 W
            Gate Leakage = 0.000622708 W
            Runtime Dynamic = 0 W

              Integer RF:
                Area = 0.362673 mm^2
                Peak Dynamic = 0 W
                Subthreshold Leakage = 0.00614175 W
                Subthreshold Leakage with power gating = 0.00246675 W
                Gate Leakage = 0.00038992 W
                Runtime Dynamic = 0 W

              Floating Point RF:
                Area = 0.208131 mm^2
                Peak Dynamic = 0 W
                Subthreshold Leakage = 0.00399698 W
                Subthreshold Leakage with power gating = 0.00176968 W
                Gate Leakage = 0.000232788 W
                Runtime Dynamic = 0 W

          Instruction Scheduler:
            Area = 2.17927 mm^2
            Peak Dynamic = 1.82248 W
            Subthreshold Leakage = 0.114878 W
            Subthreshold Leakage with power gating = 0.0641291 W
            Gate Leakage = 0.00730101 W
            Runtime Dynamic = 0 W

              Instruction Window:
                Area = 1.00996 mm^2
                Peak Dynamic = 0.781622 W
                Subthreshold Leakage = 0.0800117 W
                Subthreshold Leakage with power gating = 0.0455351 W
                Gate Leakage = 0.00529112 W
                Runtime Dynamic = 0 W

              FP Instruction Window:
                Area = 0.328073 mm^2
                Peak Dynamic = 0.454803 W
                Subthreshold Leakage = 0.017004 W
                Subthreshold Leakage with power gating = 0.00962066 W
                Gate Leakage = 0.00115349 W
                Runtime Dynamic = 0 W

              ROB:
                Area = 0.841232 mm^2
                Peak Dynamic = 0.586059 W
                Subthreshold Leakage = 0.0178624 W
                Subthreshold Leakage with power gating = 0.00897339 W
                Gate Leakage = 0.000856399 W
                Runtime Dynamic = 0 W

          Integer ALUs (Count: 6 ):
            Area = 0.47087 mm^2
            Peak Dynamic = 0 W
            Subthreshold Leakage = 0.40222 W
            Subthreshold Leakage with power gating = 0.150833 W
            Gate Leakage = 0.0265291 W
            Runtime Dynamic = 0.101344 W

          Floating Point Units (FPUs) (Count: 2 ):
            Area = 4.6585 mm^2
            Peak Dynamic = 0 W
            Subthreshold Leakage = 0.994829 W
            Subthreshold Leakage with power gating = 0.373061 W
            Gate Leakage = 0.0656156 W
            Runtime Dynamic = 0.304033 W

          Complex ALUs (Mul/Div) (Count: 1 ):
            Area = 0.235435 mm^2
            Peak Dynamic = 0 W
            Subthreshold Leakage = 0.20111 W
            Subthreshold Leakage with power gating = 0.0754163 W
            Gate Leakage = 0.0132646 W
            Runtime Dynamic = 0.202689 W

          Results Broadcast Bus:
            Area Overhead = 0.042151 mm^2
            Peak Dynamic = 0 W
            Subthreshold Leakage = 0.0877271 W
            Subthreshold Leakage with power gating = 0.0328977 W
            Gate Leakage = 0.00578619 W
            Runtime Dynamic = 0 W

*****************************************************************************************
Core:
      Area = 26.211 mm^2
      Peak Dynamic = 4.8961 W
      Subthreshold Leakage = 5.19237 W
      Subthreshold Leakage with power gating = 2.0981 W
      Gate Leakage = 0.335282 W
      Runtime Dynamic = 0.608067 W

      Instruction Fetch Unit:
        Area = 4.50679 mm^2
        Peak Dynamic = 0.834028 W
        Subthreshold Leakage = 0.798298 W
        Subthreshold Leakage with power gating = 0.356801 W
        Gate Leakage = 0.0429985 W
        Runtime Dynamic = 1.76368e-07 W

          Instruction Cache:
            Area = 1.79307 mm^2
            Peak Dynamic = 0 W
            Subthreshold Leakage = 0.232732 W
            Subthreshold Leakage with power gating = 0.128644 W
            Gate Leakage = 0.0138816 W
            Runtime Dynamic = 0 W

          Branch Target Buffer:
            Area = 0.64954 mm^2
            Peak Dynamic = 0.0668673 W
            Subthreshold Leakage = 0.0811682 W
            Subthreshold Leakage with power gating = 0.0435357 W
            Gate Leakage = 0.00272758 W
            Runtime Dynamic = 0 W

          Branch Predictor:
            Area = 0.138516 mm^2
            Peak Dynamic = 0.0224751 W
            Subthreshold Leakage = 0.0199703 W
            Subthreshold Leakage with power gating = 0.0103282 W
            Gate Leakage = 0.000757657 W
            Runtime Dynamic = 0 W

              Global Predictor:
                Area = 0.0435221 mm^2
                Peak Dynamic = 0.00634701 W
                Subthreshold Leakage = 0.00759719 W
                Subthreshold Leakage with power gating = 0.0039236 W
                Gate Leakage = 0.000278362 W
                Runtime Dynamic = 0 W

              Local Predictor:
              L1_Local Predictor:
                Area = 0.0257064 mm^2
                Peak Dynamic = 0.00535995 W
                Subthreshold Leakage = 0.00384344 W
                Subthreshold Leakage with power gating = 0.00198631 W
                Gate Leakage = 0.000154548 W
                Runtime Dynamic = 0 W

              L2_Local Predictor:
                Area = 0.0151917 mm^2
                Peak Dynamic = 0.00198288 W
                Subthreshold Leakage = 0.00181347 W
                Subthreshold Leakage with power gating = 0.000957045 W
                Gate Leakage = 8.00196e-05 W
                Runtime Dynamic = 0 W

              Chooser:
                Area = 0.0435221 mm^2
                Peak Dynamic = 0.00634701 W
                Subthreshold Leakage = 0.00759719 W
                Subthreshold Leakage with power gating = 0.0039236 W
                Gate Leakage = 0.000278362 W
                Runtime Dynamic = 0 W

              RAS:
                Area = 0.0105732 mm^2
                Peak Dynamic = 0.00442114 W
                Subthreshold Leakage = 0.000932505 W
                Subthreshold Leakage with power gating = 0.000494733 W
                Gate Leakage = 4.63858e-05 W
                Runtime Dynamic = 0 W

          Instruction Buffer:
            Area = 0.0226323 mm^2
            Peak Dynamic = 0.22813 W
            Subthreshold Leakage = 0.00151885 W
            Subthreshold Leakage with power gating = 0.000701682 W
            Gate Leakage = 6.83558e-05 W
            Runtime Dynamic = 0 W

          Instruction Decoder:
            Area = 1.85799 mm^2
            Peak Dynamic = 0.516556 W
            Subthreshold Leakage = 0.442943 W
            Subthreshold Leakage with power gating = 0.166104 W
            Gate Leakage = 0.0222493 W
            Runtime Dynamic = 0 W

      Renaming Unit:
        Area = 0.369768 mm^2
        Peak Dynamic = 1.71492 W
        Subthreshold Leakage = 0.070483 W
        Subthreshold Leakage with power gating = 0.0362779 W
        Gate Leakage = 0.00863632 W
        Runtime Dynamic = 1.76368e-07 W

          Int Front End RAT:
            Area = 0.114751 mm^2
            Peak Dynamic = 0.326861 W
            Subthreshold Leakage = 0.00611897 W
            Subthreshold Leakage with power gating = 0.00348781 W
            Gate Leakage = 0.00038343 W
            Runtime Dynamic = 0 W

          FP Front End RAT:
            Area = 0.168486 mm^2
            Peak Dynamic = 1.2538 W
            Subthreshold Leakage = 0.0437281 W
            Subthreshold Leakage with power gating = 0.024925 W
            Gate Leakage = 0.00489731 W
            Runtime Dynamic = 0 W

          Free List:
            Area = 0.0414755 mm^2
            Peak Dynamic = 0.0150874 W
            Subthreshold Leakage = 0.000670426 W
            Subthreshold Leakage with power gating = 0.000377987 W
            Gate Leakage = 4.15911e-05 W
            Runtime Dynamic = 0 W

      Load Store Unit:
        Area = 8.54154 mm^2
        Peak Dynamic = 0.465083 W
        Subthreshold Leakage = 0.569794 W
        Subthreshold Leakage with power gating = 0.270964 W
        Gate Leakage = 0.0325937 W
        Runtime Dynamic = 1.76368e-07 W

          Data Cache:
            Area = 6.84535 mm^2
            Peak Dynamic = 0.465083 W
            Subthreshold Leakage = 0.527675 W
            Subthreshold Leakage with power gating = 0.25085 W
            Gate Leakage = 0.0279261 W
            Runtime Dynamic = 0 W

          LoadQ:
            Area = 0.0836782 mm^2
            Peak Dynamic = 0 W
            Subthreshold Leakage = 0.00941961 W
            Subthreshold Leakage with power gating = 0.00536918 W
            Gate Leakage = 0.00059896 W
            Runtime Dynamic = 0 W

          StoreQ:
            Area = 0.100468 mm^2
            Peak Dynamic = 0 W
            Subthreshold Leakage = 0.0127338 W
            Subthreshold Leakage with power gating = 0.00725825 W
            Gate Leakage = 0.000754661 W
            Runtime Dynamic = 0 W

      Memory Management Unit:
        Area = 0.19411 mm^2
        Peak Dynamic = 0.0595858 W
        Subthreshold Leakage = 0.045089 W
        Subthreshold Leakage with power gating = 0.0218074 W
        Gate Leakage = 0.00476399 W
        Runtime Dynamic = 1.76368e-07 W

          Itlb:
            Area = 0.0610827 mm^2
            Peak Dynamic = 0 W
            Subthreshold Leakage = 0.00955352 W
            Subthreshold Leakage with power gating = 0.00544551 W
            Gate Leakage = 0.000562721 W
            Runtime Dynamic = 0 W

          Dtlb:
            Area = 0.0879726 mm^2
            Peak Dynamic = 0 W
            Subthreshold Leakage = 0.0155699 W
            Subthreshold Leakage with power gating = 0.00887485 W
            Gate Leakage = 0.00088729 W
            Runtime Dynamic = 0 W

      Execution Unit:
        Area = 8.20208 mm^2
        Peak Dynamic = 1.82248 W
        Subthreshold Leakage = 1.83087 W
        Subthreshold Leakage with power gating = 0.70806 W
        Gate Leakage = 0.122433 W
        Runtime Dynamic = 0.608066 W

          Register Files:
            Area = 0.570804 mm^2
            Peak Dynamic = 0 W
            Subthreshold Leakage = 0.0101387 W
            Subthreshold Leakage with power gating = 0.00423643 W
            Gate Leakage = 0.000622708 W
            Runtime Dynamic = 0 W

              Integer RF:
                Area = 0.362673 mm^2
                Peak Dynamic = 0 W
                Subthreshold Leakage = 0.00614175 W
                Subthreshold Leakage with power gating = 0.00246675 W
                Gate Leakage = 0.00038992 W
                Runtime Dynamic = 0 W

              Floating Point RF:
                Area = 0.208131 mm^2
                Peak Dynamic = 0 W
                Subthreshold Leakage = 0.00399698 W
                Subthreshold Leakage with power gating = 0.00176968 W
                Gate Leakage = 0.000232788 W
                Runtime Dynamic = 0 W

          Instruction Scheduler:
            Area = 2.17927 mm^2
            Peak Dynamic = 1.82248 W
            Subthreshold Leakage = 0.114878 W
            Subthreshold Leakage with power gating = 0.0641291 W
            Gate Leakage = 0.00730101 W
            Runtime Dynamic = 0 W

              Instruction Window:
                Area = 1.00996 mm^2
                Peak Dynamic = 0.781622 W
                Subthreshold Leakage = 0.0800117 W
                Subthreshold Leakage with power gating = 0.0455351 W
                Gate Leakage = 0.00529112 W
                Runtime Dynamic = 0 W

              FP Instruction Window:
                Area = 0.328073 mm^2
                Peak Dynamic = 0.454803 W
                Subthreshold Leakage = 0.017004 W
                Subthreshold Leakage with power gating = 0.00962066 W
                Gate Leakage = 0.00115349 W
                Runtime Dynamic = 0 W

              ROB:
                Area = 0.841232 mm^2
                Peak Dynamic = 0.586059 W
                Subthreshold Leakage = 0.0178624 W
                Subthreshold Leakage with power gating = 0.00897339 W
                Gate Leakage = 0.000856399 W
                Runtime Dynamic = 0 W

          Integer ALUs (Count: 6 ):
            Area = 0.47087 mm^2
            Peak Dynamic = 0 W
            Subthreshold Leakage = 0.40222 W
            Subthreshold Leakage with power gating = 0.150833 W
            Gate Leakage = 0.0265291 W
            Runtime Dynamic = 0.101344 W

          Floating Point Units (FPUs) (Count: 2 ):
            Area = 4.6585 mm^2
            Peak Dynamic = 0 W
            Subthreshold Leakage = 0.994829 W
            Subthreshold Leakage with power gating = 0.373061 W
            Gate Leakage = 0.0656156 W
            Runtime Dynamic = 0.304033 W

          Complex ALUs (Mul/Div) (Count: 1 ):
            Area = 0.235435 mm^2
            Peak Dynamic = 0 W
            Subthreshold Leakage = 0.20111 W
            Subthreshold Leakage with power gating = 0.0754163 W
            Gate Leakage = 0.0132646 W
            Runtime Dynamic = 0.202689 W

          Results Broadcast Bus:
            Area Overhead = 0.042151 mm^2
            Peak Dynamic = 0 W
            Subthreshold Leakage = 0.0877271 W
            Subthreshold Leakage with power gating = 0.0328977 W
            Gate Leakage = 0.00578619 W
            Runtime Dynamic = 0 W

*****************************************************************************************
Core:
      Area = 26.211 mm^2
      Peak Dynamic = 4.8961 W
      Subthreshold Leakage = 5.19237 W
      Subthreshold Leakage with power gating = 2.0981 W
      Gate Leakage = 0.335282 W
      Runtime Dynamic = 0.608067 W

      Instruction Fetch Unit:
        Area = 4.50679 mm^2
        Peak Dynamic = 0.834028 W
        Subthreshold Leakage = 0.798298 W
        Subthreshold Leakage with power gating = 0.356801 W
        Gate Leakage = 0.0429985 W
        Runtime Dynamic = 1.76368e-07 W

          Instruction Cache:
            Area = 1.79307 mm^2
            Peak Dynamic = 0 W
            Subthreshold Leakage = 0.232732 W
            Subthreshold Leakage with power gating = 0.128644 W
            Gate Leakage = 0.0138816 W
            Runtime Dynamic = 0 W

          Branch Target Buffer:
            Area = 0.64954 mm^2
            Peak Dynamic = 0.0668673 W
            Subthreshold Leakage = 0.0811682 W
            Subthreshold Leakage with power gating = 0.0435357 W
            Gate Leakage = 0.00272758 W
            Runtime Dynamic = 0 W

          Branch Predictor:
            Area = 0.138516 mm^2
            Peak Dynamic = 0.0224751 W
            Subthreshold Leakage = 0.0199703 W
            Subthreshold Leakage with power gating = 0.0103282 W
            Gate Leakage = 0.000757657 W
            Runtime Dynamic = 0 W

              Global Predictor:
                Area = 0.0435221 mm^2
                Peak Dynamic = 0.00634701 W
                Subthreshold Leakage = 0.00759719 W
                Subthreshold Leakage with power gating = 0.0039236 W
                Gate Leakage = 0.000278362 W
                Runtime Dynamic = 0 W

              Local Predictor:
              L1_Local Predictor:
                Area = 0.0257064 mm^2
                Peak Dynamic = 0.00535995 W
                Subthreshold Leakage = 0.00384344 W
                Subthreshold Leakage with power gating = 0.00198631 W
                Gate Leakage = 0.000154548 W
                Runtime Dynamic = 0 W

              L2_Local Predictor:
                Area = 0.0151917 mm^2
                Peak Dynamic = 0.00198288 W
                Subthreshold Leakage = 0.00181347 W
                Subthreshold Leakage with power gating = 0.000957045 W
                Gate Leakage = 8.00196e-05 W
                Runtime Dynamic = 0 W

              Chooser:
                Area = 0.0435221 mm^2
                Peak Dynamic = 0.00634701 W
                Subthreshold Leakage = 0.00759719 W
                Subthreshold Leakage with power gating = 0.0039236 W
                Gate Leakage = 0.000278362 W
                Runtime Dynamic = 0 W

              RAS:
                Area = 0.0105732 mm^2
                Peak Dynamic = 0.00442114 W
                Subthreshold Leakage = 0.000932505 W
                Subthreshold Leakage with power gating = 0.000494733 W
                Gate Leakage = 4.63858e-05 W
                Runtime Dynamic = 0 W

          Instruction Buffer:
            Area = 0.0226323 mm^2
            Peak Dynamic = 0.22813 W
            Subthreshold Leakage = 0.00151885 W
            Subthreshold Leakage with power gating = 0.000701682 W
            Gate Leakage = 6.83558e-05 W
            Runtime Dynamic = 0 W

          Instruction Decoder:
            Area = 1.85799 mm^2
            Peak Dynamic = 0.516556 W
            Subthreshold Leakage = 0.442943 W
            Subthreshold Leakage with power gating = 0.166104 W
            Gate Leakage = 0.0222493 W
            Runtime Dynamic = 0 W

      Renaming Unit:
        Area = 0.369768 mm^2
        Peak Dynamic = 1.71492 W
        Subthreshold Leakage = 0.070483 W
        Subthreshold Leakage with power gating = 0.0362779 W
        Gate Leakage = 0.00863632 W
        Runtime Dynamic = 1.76368e-07 W

          Int Front End RAT:
            Area = 0.114751 mm^2
            Peak Dynamic = 0.326861 W
            Subthreshold Leakage = 0.00611897 W
            Subthreshold Leakage with power gating = 0.00348781 W
            Gate Leakage = 0.00038343 W
            Runtime Dynamic = 0 W

          FP Front End RAT:
            Area = 0.168486 mm^2
            Peak Dynamic = 1.2538 W
            Subthreshold Leakage = 0.0437281 W
            Subthreshold Leakage with power gating = 0.024925 W
            Gate Leakage = 0.00489731 W
            Runtime Dynamic = 0 W

          Free List:
            Area = 0.0414755 mm^2
            Peak Dynamic = 0.0150874 W
            Subthreshold Leakage = 0.000670426 W
            Subthreshold Leakage with power gating = 0.000377987 W
            Gate Leakage = 4.15911e-05 W
            Runtime Dynamic = 0 W

      Load Store Unit:
        Area = 8.54154 mm^2
        Peak Dynamic = 0.465083 W
        Subthreshold Leakage = 0.569794 W
        Subthreshold Leakage with power gating = 0.270964 W
        Gate Leakage = 0.0325937 W
        Runtime Dynamic = 1.76368e-07 W

          Data Cache:
            Area = 6.84535 mm^2
            Peak Dynamic = 0.465083 W
            Subthreshold Leakage = 0.527675 W
            Subthreshold Leakage with power gating = 0.25085 W
            Gate Leakage = 0.0279261 W
            Runtime Dynamic = 0 W

          LoadQ:
            Area = 0.0836782 mm^2
            Peak Dynamic = 0 W
            Subthreshold Leakage = 0.00941961 W
            Subthreshold Leakage with power gating = 0.00536918 W
            Gate Leakage = 0.00059896 W
            Runtime Dynamic = 0 W

          StoreQ:
            Area = 0.100468 mm^2
            Peak Dynamic = 0 W
            Subthreshold Leakage = 0.0127338 W
            Subthreshold Leakage with power gating = 0.00725825 W
            Gate Leakage = 0.000754661 W
            Runtime Dynamic = 0 W

      Memory Management Unit:
        Area = 0.19411 mm^2
        Peak Dynamic = 0.0595858 W
        Subthreshold Leakage = 0.045089 W
        Subthreshold Leakage with power gating = 0.0218074 W
        Gate Leakage = 0.00476399 W
        Runtime Dynamic = 1.76368e-07 W

          Itlb:
            Area = 0.0610827 mm^2
            Peak Dynamic = 0 W
            Subthreshold Leakage = 0.00955352 W
            Subthreshold Leakage with power gating = 0.00544551 W
            Gate Leakage = 0.000562721 W
            Runtime Dynamic = 0 W

          Dtlb:
            Area = 0.0879726 mm^2
            Peak Dynamic = 0 W
            Subthreshold Leakage = 0.0155699 W
            Subthreshold Leakage with power gating = 0.00887485 W
            Gate Leakage = 0.00088729 W
            Runtime Dynamic = 0 W

      Execution Unit:
        Area = 8.20208 mm^2
        Peak Dynamic = 1.82248 W
        Subthreshold Leakage = 1.83087 W
        Subthreshold Leakage with power gating = 0.70806 W
        Gate Leakage = 0.122433 W
        Runtime Dynamic = 0.608066 W

          Register Files:
            Area = 0.570804 mm^2
            Peak Dynamic = 0 W
            Subthreshold Leakage = 0.0101387 W
            Subthreshold Leakage with power gating = 0.00423643 W
            Gate Leakage = 0.000622708 W
            Runtime Dynamic = 0 W

              Integer RF:
                Area = 0.362673 mm^2
                Peak Dynamic = 0 W
                Subthreshold Leakage = 0.00614175 W
                Subthreshold Leakage with power gating = 0.00246675 W
                Gate Leakage = 0.00038992 W
                Runtime Dynamic = 0 W

              Floating Point RF:
                Area = 0.208131 mm^2
                Peak Dynamic = 0 W
                Subthreshold Leakage = 0.00399698 W
                Subthreshold Leakage with power gating = 0.00176968 W
                Gate Leakage = 0.000232788 W
                Runtime Dynamic = 0 W

          Instruction Scheduler:
            Area = 2.17927 mm^2
            Peak Dynamic = 1.82248 W
            Subthreshold Leakage = 0.114878 W
            Subthreshold Leakage with power gating = 0.0641291 W
            Gate Leakage = 0.00730101 W
            Runtime Dynamic = 0 W

              Instruction Window:
                Area = 1.00996 mm^2
                Peak Dynamic = 0.781622 W
                Subthreshold Leakage = 0.0800117 W
                Subthreshold Leakage with power gating = 0.0455351 W
                Gate Leakage = 0.00529112 W
                Runtime Dynamic = 0 W

              FP Instruction Window:
                Area = 0.328073 mm^2
                Peak Dynamic = 0.454803 W
                Subthreshold Leakage = 0.017004 W
                Subthreshold Leakage with power gating = 0.00962066 W
                Gate Leakage = 0.00115349 W
                Runtime Dynamic = 0 W

              ROB:
                Area = 0.841232 mm^2
                Peak Dynamic = 0.586059 W
                Subthreshold Leakage = 0.0178624 W
                Subthreshold Leakage with power gating = 0.00897339 W
                Gate Leakage = 0.000856399 W
                Runtime Dynamic = 0 W

          Integer ALUs (Count: 6 ):
            Area = 0.47087 mm^2
            Peak Dynamic = 0 W
            Subthreshold Leakage = 0.40222 W
            Subthreshold Leakage with power gating = 0.150833 W
            Gate Leakage = 0.0265291 W
            Runtime Dynamic = 0.101344 W

          Floating Point Units (FPUs) (Count: 2 ):
            Area = 4.6585 mm^2
            Peak Dynamic = 0 W
            Subthreshold Leakage = 0.994829 W
            Subthreshold Leakage with power gating = 0.373061 W
            Gate Leakage = 0.0656156 W
            Runtime Dynamic = 0.304033 W

          Complex ALUs (Mul/Div) (Count: 1 ):
            Area = 0.235435 mm^2
            Peak Dynamic = 0 W
            Subthreshold Leakage = 0.20111 W
            Subthreshold Leakage with power gating = 0.0754163 W
            Gate Leakage = 0.0132646 W
            Runtime Dynamic = 0.202689 W

          Results Broadcast Bus:
            Area Overhead = 0.042151 mm^2
            Peak Dynamic = 0 W
            Subthreshold Leakage = 0.0877271 W
            Subthreshold Leakage with power gating = 0.0328977 W
            Gate Leakage = 0.00578619 W
            Runtime Dynamic = 0 W

*****************************************************************************************
Core:
      Area = 26.211 mm^2
      Peak Dynamic = 4.8961 W
      Subthreshold Leakage = 5.19237 W
      Subthreshold Leakage with power gating = 2.0981 W
      Gate Leakage = 0.335282 W
      Runtime Dynamic = 0.608067 W

      Instruction Fetch Unit:
        Area = 4.50679 mm^2
        Peak Dynamic = 0.834028 W
        Subthreshold Leakage = 0.798298 W
        Subthreshold Leakage with power gating = 0.356801 W
        Gate Leakage = 0.0429985 W
        Runtime Dynamic = 1.76368e-07 W

          Instruction Cache:
            Area = 1.79307 mm^2
            Peak Dynamic = 0 W
            Subthreshold Leakage = 0.232732 W
            Subthreshold Leakage with power gating = 0.128644 W
            Gate Leakage = 0.0138816 W
            Runtime Dynamic = 0 W

          Branch Target Buffer:
            Area = 0.64954 mm^2
            Peak Dynamic = 0.0668673 W
            Subthreshold Leakage = 0.0811682 W
            Subthreshold Leakage with power gating = 0.0435357 W
            Gate Leakage = 0.00272758 W
            Runtime Dynamic = 0 W

          Branch Predictor:
            Area = 0.138516 mm^2
            Peak Dynamic = 0.0224751 W
            Subthreshold Leakage = 0.0199703 W
            Subthreshold Leakage with power gating = 0.0103282 W
            Gate Leakage = 0.000757657 W
            Runtime Dynamic = 0 W

              Global Predictor:
                Area = 0.0435221 mm^2
                Peak Dynamic = 0.00634701 W
                Subthreshold Leakage = 0.00759719 W
                Subthreshold Leakage with power gating = 0.0039236 W
                Gate Leakage = 0.000278362 W
                Runtime Dynamic = 0 W

              Local Predictor:
              L1_Local Predictor:
                Area = 0.0257064 mm^2
                Peak Dynamic = 0.00535995 W
                Subthreshold Leakage = 0.00384344 W
                Subthreshold Leakage with power gating = 0.00198631 W
                Gate Leakage = 0.000154548 W
                Runtime Dynamic = 0 W

              L2_Local Predictor:
                Area = 0.0151917 mm^2
                Peak Dynamic = 0.00198288 W
                Subthreshold Leakage = 0.00181347 W
                Subthreshold Leakage with power gating = 0.000957045 W
                Gate Leakage = 8.00196e-05 W
                Runtime Dynamic = 0 W

              Chooser:
                Area = 0.0435221 mm^2
                Peak Dynamic = 0.00634701 W
                Subthreshold Leakage = 0.00759719 W
                Subthreshold Leakage with power gating = 0.0039236 W
                Gate Leakage = 0.000278362 W
                Runtime Dynamic = 0 W

              RAS:
                Area = 0.0105732 mm^2
                Peak Dynamic = 0.00442114 W
                Subthreshold Leakage = 0.000932505 W
                Subthreshold Leakage with power gating = 0.000494733 W
                Gate Leakage = 4.63858e-05 W
                Runtime Dynamic = 0 W

          Instruction Buffer:
            Area = 0.0226323 mm^2
            Peak Dynamic = 0.22813 W
            Subthreshold Leakage = 0.00151885 W
            Subthreshold Leakage with power gating = 0.000701682 W
            Gate Leakage = 6.83558e-05 W
            Runtime Dynamic = 0 W

          Instruction Decoder:
            Area = 1.85799 mm^2
            Peak Dynamic = 0.516556 W
            Subthreshold Leakage = 0.442943 W
            Subthreshold Leakage with power gating = 0.166104 W
            Gate Leakage = 0.0222493 W
            Runtime Dynamic = 0 W

      Renaming Unit:
        Area = 0.369768 mm^2
        Peak Dynamic = 1.71492 W
        Subthreshold Leakage = 0.070483 W
        Subthreshold Leakage with power gating = 0.0362779 W
        Gate Leakage = 0.00863632 W
        Runtime Dynamic = 1.76368e-07 W

          Int Front End RAT:
            Area = 0.114751 mm^2
            Peak Dynamic = 0.326861 W
            Subthreshold Leakage = 0.00611897 W
            Subthreshold Leakage with power gating = 0.00348781 W
            Gate Leakage = 0.00038343 W
            Runtime Dynamic = 0 W

          FP Front End RAT:
            Area = 0.168486 mm^2
            Peak Dynamic = 1.2538 W
            Subthreshold Leakage = 0.0437281 W
            Subthreshold Leakage with power gating = 0.024925 W
            Gate Leakage = 0.00489731 W
            Runtime Dynamic = 0 W

          Free List:
            Area = 0.0414755 mm^2
            Peak Dynamic = 0.0150874 W
            Subthreshold Leakage = 0.000670426 W
            Subthreshold Leakage with power gating = 0.000377987 W
            Gate Leakage = 4.15911e-05 W
            Runtime Dynamic = 0 W

      Load Store Unit:
        Area = 8.54154 mm^2
        Peak Dynamic = 0.465083 W
        Subthreshold Leakage = 0.569794 W
        Subthreshold Leakage with power gating = 0.270964 W
        Gate Leakage = 0.0325937 W
        Runtime Dynamic = 1.76368e-07 W

          Data Cache:
            Area = 6.84535 mm^2
            Peak Dynamic = 0.465083 W
            Subthreshold Leakage = 0.527675 W
            Subthreshold Leakage with power gating = 0.25085 W
            Gate Leakage = 0.0279261 W
            Runtime Dynamic = 0 W

          LoadQ:
            Area = 0.0836782 mm^2
            Peak Dynamic = 0 W
            Subthreshold Leakage = 0.00941961 W
            Subthreshold Leakage with power gating = 0.00536918 W
            Gate Leakage = 0.00059896 W
            Runtime Dynamic = 0 W

          StoreQ:
            Area = 0.100468 mm^2
            Peak Dynamic = 0 W
            Subthreshold Leakage = 0.0127338 W
            Subthreshold Leakage with power gating = 0.00725825 W
            Gate Leakage = 0.000754661 W
            Runtime Dynamic = 0 W

      Memory Management Unit:
        Area = 0.19411 mm^2
        Peak Dynamic = 0.0595858 W
        Subthreshold Leakage = 0.045089 W
        Subthreshold Leakage with power gating = 0.0218074 W
        Gate Leakage = 0.00476399 W
        Runtime Dynamic = 1.76368e-07 W

          Itlb:
            Area = 0.0610827 mm^2
            Peak Dynamic = 0 W
            Subthreshold Leakage = 0.00955352 W
            Subthreshold Leakage with power gating = 0.00544551 W
            Gate Leakage = 0.000562721 W
            Runtime Dynamic = 0 W

          Dtlb:
            Area = 0.0879726 mm^2
            Peak Dynamic = 0 W
            Subthreshold Leakage = 0.0155699 W
            Subthreshold Leakage with power gating = 0.00887485 W
            Gate Leakage = 0.00088729 W
            Runtime Dynamic = 0 W

      Execution Unit:
        Area = 8.20208 mm^2
        Peak Dynamic = 1.82248 W
        Subthreshold Leakage = 1.83087 W
        Subthreshold Leakage with power gating = 0.70806 W
        Gate Leakage = 0.122433 W
        Runtime Dynamic = 0.608066 W

          Register Files:
            Area = 0.570804 mm^2
            Peak Dynamic = 0 W
            Subthreshold Leakage = 0.0101387 W
            Subthreshold Leakage with power gating = 0.00423643 W
            Gate Leakage = 0.000622708 W
            Runtime Dynamic = 0 W

              Integer RF:
                Area = 0.362673 mm^2
                Peak Dynamic = 0 W
                Subthreshold Leakage = 0.00614175 W
                Subthreshold Leakage with power gating = 0.00246675 W
                Gate Leakage = 0.00038992 W
                Runtime Dynamic = 0 W

              Floating Point RF:
                Area = 0.208131 mm^2
                Peak Dynamic = 0 W
                Subthreshold Leakage = 0.00399698 W
                Subthreshold Leakage with power gating = 0.00176968 W
                Gate Leakage = 0.000232788 W
                Runtime Dynamic = 0 W

          Instruction Scheduler:
            Area = 2.17927 mm^2
            Peak Dynamic = 1.82248 W
            Subthreshold Leakage = 0.114878 W
            Subthreshold Leakage with power gating = 0.0641291 W
            Gate Leakage = 0.00730101 W
            Runtime Dynamic = 0 W

              Instruction Window:
                Area = 1.00996 mm^2
                Peak Dynamic = 0.781622 W
                Subthreshold Leakage = 0.0800117 W
                Subthreshold Leakage with power gating = 0.0455351 W
                Gate Leakage = 0.00529112 W
                Runtime Dynamic = 0 W

              FP Instruction Window:
                Area = 0.328073 mm^2
                Peak Dynamic = 0.454803 W
                Subthreshold Leakage = 0.017004 W
                Subthreshold Leakage with power gating = 0.00962066 W
                Gate Leakage = 0.00115349 W
                Runtime Dynamic = 0 W

              ROB:
                Area = 0.841232 mm^2
                Peak Dynamic = 0.586059 W
                Subthreshold Leakage = 0.0178624 W
                Subthreshold Leakage with power gating = 0.00897339 W
                Gate Leakage = 0.000856399 W
                Runtime Dynamic = 0 W

          Integer ALUs (Count: 6 ):
            Area = 0.47087 mm^2
            Peak Dynamic = 0 W
            Subthreshold Leakage = 0.40222 W
            Subthreshold Leakage with power gating = 0.150833 W
            Gate Leakage = 0.0265291 W
            Runtime Dynamic = 0.101344 W

          Floating Point Units (FPUs) (Count: 2 ):
            Area = 4.6585 mm^2
            Peak Dynamic = 0 W
            Subthreshold Leakage = 0.994829 W
            Subthreshold Leakage with power gating = 0.373061 W
            Gate Leakage = 0.0656156 W
            Runtime Dynamic = 0.304033 W

          Complex ALUs (Mul/Div) (Count: 1 ):
            Area = 0.235435 mm^2
            Peak Dynamic = 0 W
            Subthreshold Leakage = 0.20111 W
            Subthreshold Leakage with power gating = 0.0754163 W
            Gate Leakage = 0.0132646 W
            Runtime Dynamic = 0.202689 W

          Results Broadcast Bus:
            Area Overhead = 0.042151 mm^2
            Peak Dynamic = 0 W
            Subthreshold Leakage = 0.0877271 W
            Subthreshold Leakage with power gating = 0.0328977 W
            Gate Leakage = 0.00578619 W
            Runtime Dynamic = 0 W

*****************************************************************************************
Core:
      Area = 26.211 mm^2
      Peak Dynamic = 4.8961 W
      Subthreshold Leakage = 5.19237 W
      Subthreshold Leakage with power gating = 2.0981 W
      Gate Leakage = 0.335282 W
      Runtime Dynamic = 0.608067 W

      Instruction Fetch Unit:
        Area = 4.50679 mm^2
        Peak Dynamic = 0.834028 W
        Subthreshold Leakage = 0.798298 W
        Subthreshold Leakage with power gating = 0.356801 W
        Gate Leakage = 0.0429985 W
        Runtime Dynamic = 1.76368e-07 W

          Instruction Cache:
            Area = 1.79307 mm^2
            Peak Dynamic = 0 W
            Subthreshold Leakage = 0.232732 W
            Subthreshold Leakage with power gating = 0.128644 W
            Gate Leakage = 0.0138816 W
            Runtime Dynamic = 0 W

          Branch Target Buffer:
            Area = 0.64954 mm^2
            Peak Dynamic = 0.0668673 W
            Subthreshold Leakage = 0.0811682 W
            Subthreshold Leakage with power gating = 0.0435357 W
            Gate Leakage = 0.00272758 W
            Runtime Dynamic = 0 W

          Branch Predictor:
            Area = 0.138516 mm^2
            Peak Dynamic = 0.0224751 W
            Subthreshold Leakage = 0.0199703 W
            Subthreshold Leakage with power gating = 0.0103282 W
            Gate Leakage = 0.000757657 W
            Runtime Dynamic = 0 W

              Global Predictor:
                Area = 0.0435221 mm^2
                Peak Dynamic = 0.00634701 W
                Subthreshold Leakage = 0.00759719 W
                Subthreshold Leakage with power gating = 0.0039236 W
                Gate Leakage = 0.000278362 W
                Runtime Dynamic = 0 W

              Local Predictor:
              L1_Local Predictor:
                Area = 0.0257064 mm^2
                Peak Dynamic = 0.00535995 W
                Subthreshold Leakage = 0.00384344 W
                Subthreshold Leakage with power gating = 0.00198631 W
                Gate Leakage = 0.000154548 W
                Runtime Dynamic = 0 W

              L2_Local Predictor:
                Area = 0.0151917 mm^2
                Peak Dynamic = 0.00198288 W
                Subthreshold Leakage = 0.00181347 W
                Subthreshold Leakage with power gating = 0.000957045 W
                Gate Leakage = 8.00196e-05 W
                Runtime Dynamic = 0 W

              Chooser:
                Area = 0.0435221 mm^2
                Peak Dynamic = 0.00634701 W
                Subthreshold Leakage = 0.00759719 W
                Subthreshold Leakage with power gating = 0.0039236 W
                Gate Leakage = 0.000278362 W
                Runtime Dynamic = 0 W

              RAS:
                Area = 0.0105732 mm^2
                Peak Dynamic = 0.00442114 W
                Subthreshold Leakage = 0.000932505 W
                Subthreshold Leakage with power gating = 0.000494733 W
                Gate Leakage = 4.63858e-05 W
                Runtime Dynamic = 0 W

          Instruction Buffer:
            Area = 0.0226323 mm^2
            Peak Dynamic = 0.22813 W
            Subthreshold Leakage = 0.00151885 W
            Subthreshold Leakage with power gating = 0.000701682 W
            Gate Leakage = 6.83558e-05 W
            Runtime Dynamic = 0 W

          Instruction Decoder:
            Area = 1.85799 mm^2
            Peak Dynamic = 0.516556 W
            Subthreshold Leakage = 0.442943 W
            Subthreshold Leakage with power gating = 0.166104 W
            Gate Leakage = 0.0222493 W
            Runtime Dynamic = 0 W

      Renaming Unit:
        Area = 0.369768 mm^2
        Peak Dynamic = 1.71492 W
        Subthreshold Leakage = 0.070483 W
        Subthreshold Leakage with power gating = 0.0362779 W
        Gate Leakage = 0.00863632 W
        Runtime Dynamic = 1.76368e-07 W

          Int Front End RAT:
            Area = 0.114751 mm^2
            Peak Dynamic = 0.326861 W
            Subthreshold Leakage = 0.00611897 W
            Subthreshold Leakage with power gating = 0.00348781 W
            Gate Leakage = 0.00038343 W
            Runtime Dynamic = 0 W

          FP Front End RAT:
            Area = 0.168486 mm^2
            Peak Dynamic = 1.2538 W
            Subthreshold Leakage = 0.0437281 W
            Subthreshold Leakage with power gating = 0.024925 W
            Gate Leakage = 0.00489731 W
            Runtime Dynamic = 0 W

          Free List:
            Area = 0.0414755 mm^2
            Peak Dynamic = 0.0150874 W
            Subthreshold Leakage = 0.000670426 W
            Subthreshold Leakage with power gating = 0.000377987 W
            Gate Leakage = 4.15911e-05 W
            Runtime Dynamic = 0 W

      Load Store Unit:
        Area = 8.54154 mm^2
        Peak Dynamic = 0.465083 W
        Subthreshold Leakage = 0.569794 W
        Subthreshold Leakage with power gating = 0.270964 W
        Gate Leakage = 0.0325937 W
        Runtime Dynamic = 1.76368e-07 W

          Data Cache:
            Area = 6.84535 mm^2
            Peak Dynamic = 0.465083 W
            Subthreshold Leakage = 0.527675 W
            Subthreshold Leakage with power gating = 0.25085 W
            Gate Leakage = 0.0279261 W
            Runtime Dynamic = 0 W

          LoadQ:
            Area = 0.0836782 mm^2
            Peak Dynamic = 0 W
            Subthreshold Leakage = 0.00941961 W
            Subthreshold Leakage with power gating = 0.00536918 W
            Gate Leakage = 0.00059896 W
            Runtime Dynamic = 0 W

          StoreQ:
            Area = 0.100468 mm^2
            Peak Dynamic = 0 W
            Subthreshold Leakage = 0.0127338 W
            Subthreshold Leakage with power gating = 0.00725825 W
            Gate Leakage = 0.000754661 W
            Runtime Dynamic = 0 W

      Memory Management Unit:
        Area = 0.19411 mm^2
        Peak Dynamic = 0.0595858 W
        Subthreshold Leakage = 0.045089 W
        Subthreshold Leakage with power gating = 0.0218074 W
        Gate Leakage = 0.00476399 W
        Runtime Dynamic = 1.76368e-07 W

          Itlb:
            Area = 0.0610827 mm^2
            Peak Dynamic = 0 W
            Subthreshold Leakage = 0.00955352 W
            Subthreshold Leakage with power gating = 0.00544551 W
            Gate Leakage = 0.000562721 W
            Runtime Dynamic = 0 W

          Dtlb:
            Area = 0.0879726 mm^2
            Peak Dynamic = 0 W
            Subthreshold Leakage = 0.0155699 W
            Subthreshold Leakage with power gating = 0.00887485 W
            Gate Leakage = 0.00088729 W
            Runtime Dynamic = 0 W

      Execution Unit:
        Area = 8.20208 mm^2
[...]
                Runtime Dynamic = 0 W

              Local Predictor:
              L1_Local Predictor:
                Area = 0.0257064 mm^2
                Peak Dynamic = 0.00535995 W
                Subthreshold Leakage = 0.00384344 W
                Subthreshold Leakage with power gating = 0.00198631 W
                Gate Leakage = 0.000154548 W
                Runtime Dynamic = 0 W

              L2_Local Predictor:
                Area = 0.0151917 mm^2
                Peak Dynamic = 0.00198288 W
                Subthreshold Leakage = 0.00181347 W
                Subthreshold Leakage with power gating = 0.000957045 W
                Gate Leakage = 8.00196e-05 W
                Runtime Dynamic = 0 W

              Chooser:
                Area = 0.0435221 mm^2
                Peak Dynamic = 0.00634701 W
                Subthreshold Leakage = 0.00759719 W
                Subthreshold Leakage with power gating = 0.0039236 W
                Gate Leakage = 0.000278362 W
                Runtime Dynamic = 0 W

              RAS:
                Area = 0.0105732 mm^2
                Peak Dynamic = 0.00442114 W
                Subthreshold Leakage = 0.000932505 W
                Subthreshold Leakage with power gating = 0.000494733 W
                Gate Leakage = 4.63858e-05 W
                Runtime Dynamic = 0 W

          Instruction Buffer:
            Area = 0.0226323 mm^2
            Peak Dynamic = 0.22813 W
            Subthreshold Leakage = 0.00151885 W
            Subthreshold Leakage with power gating = 0.000701682 W
            Gate Leakage = 6.83558e-05 W
            Runtime Dynamic = 0 W

          Instruction Decoder:
            Area = 1.85799 mm^2
            Peak Dynamic = 0.516556 W
            Subthreshold Leakage = 0.442943 W
            Subthreshold Leakage with power gating = 0.166104 W
            Gate Leakage = 0.0222493 W
            Runtime Dynamic = 0 W

      Renaming Unit:
        Area = 0.369768 mm^2
        Peak Dynamic = 1.71492 W
        Subthreshold Leakage = 0.070483 W
        Subthreshold Leakage with power gating = 0.0362779 W
        Gate Leakage = 0.00863632 W
        Runtime Dynamic = 1.76368e-07 W

          Int Front End RAT:
            Area = 0.114751 mm^2
            Peak Dynamic = 0.326861 W
            Subthreshold Leakage = 0.00611897 W
            Subthreshold Leakage with power gating = 0.00348781 W
            Gate Leakage = 0.00038343 W
            Runtime Dynamic = 0 W

          FP Front End RAT:
            Area = 0.168486 mm^2
            Peak Dynamic = 1.2538 W
            Subthreshold Leakage = 0.0437281 W
            Subthreshold Leakage with power gating = 0.024925 W
            Gate Leakage = 0.00489731 W
            Runtime Dynamic = 0 W

          Free List:
            Area = 0.0414755 mm^2
            Peak Dynamic = 0.0150874 W
            Subthreshold Leakage = 0.000670426 W
            Subthreshold Leakage with power gating = 0.000377987 W
            Gate Leakage = 4.15911e-05 W
            Runtime Dynamic = 0 W

      Load Store Unit:
        Area = 8.54154 mm^2
        Peak Dynamic = 0.465083 W
        Subthreshold Leakage = 0.569794 W
        Subthreshold Leakage with power gating = 0.270964 W
        Gate Leakage = 0.0325937 W
        Runtime Dynamic = 1.76368e-07 W

          Data Cache:
            Area = 6.84535 mm^2
            Peak Dynamic = 0.465083 W
            Subthreshold Leakage = 0.527675 W
            Subthreshold Leakage with power gating = 0.25085 W
            Gate Leakage = 0.0279261 W
            Runtime Dynamic = 0 W

          LoadQ:
            Area = 0.0836782 mm^2
            Peak Dynamic = 0 W
            Subthreshold Leakage = 0.00941961 W
            Subthreshold Leakage with power gating = 0.00536918 W
            Gate Leakage = 0.00059896 W
            Runtime Dynamic = 0 W

          StoreQ:
            Area = 0.100468 mm^2
            Peak Dynamic = 0 W
            Subthreshold Leakage = 0.0127338 W
            Subthreshold Leakage with power gating = 0.00725825 W
            Gate Leakage = 0.000754661 W
            Runtime Dynamic = 0 W

      Memory Management Unit:
        Area = 0.19411 mm^2
        Peak Dynamic = 0.0595858 W
        Subthreshold Leakage = 0.045089 W
        Subthreshold Leakage with power gating = 0.0218074 W
        Gate Leakage = 0.00476399 W
        Runtime Dynamic = 1.76368e-07 W

          Itlb:
            Area = 0.0610827 mm^2
            Peak Dynamic = 0 W
            Subthreshold Leakage = 0.00955352 W
            Subthreshold Leakage with power gating = 0.00544551 W
            Gate Leakage = 0.000562721 W
            Runtime Dynamic = 0 W

          Dtlb:
            Area = 0.0879726 mm^2
            Peak Dynamic = 0 W
            Subthreshold Leakage = 0.0155699 W
            Subthreshold Leakage with power gating = 0.00887485 W
            Gate Leakage = 0.00088729 W
            Runtime Dynamic = 0 W

      Execution Unit:
        Area = 8.20208 mm^2
        Peak Dynamic = 1.82248 W
        Subthreshold Leakage = 1.83087 W
        Subthreshold Leakage with power gating = 0.70806 W
        Gate Leakage = 0.122433 W
        Runtime Dynamic = 0.608066 W

          Register Files:
            Area = 0.570804 mm^2
            Peak Dynamic = 0 W
            Subthreshold Leakage = 0.0101387 W
            Subthreshold Leakage with power gating = 0.00423643 W
            Gate Leakage = 0.000622708 W
            Runtime Dynamic = 0 W

              Integer RF:
                Area = 0.362673 mm^2
                Peak Dynamic = 0 W
                Subthreshold Leakage = 0.00614175 W
                Subthreshold Leakage with power gating = 0.00246675 W
                Gate Leakage = 0.00038992 W
                Runtime Dynamic = 0 W

              Floating Point RF:
                Area = 0.208131 mm^2
                Peak Dynamic = 0 W
                Subthreshold Leakage = 0.00399698 W
                Subthreshold Leakage with power gating = 0.00176968 W
                Gate Leakage = 0.000232788 W
                Runtime Dynamic = 0 W

          Instruction Scheduler:
            Area = 2.17927 mm^2
            Peak Dynamic = 1.82248 W
            Subthreshold Leakage = 0.114878 W
            Subthreshold Leakage with power gating = 0.0641291 W
            Gate Leakage = 0.00730101 W
            Runtime Dynamic = 0 W

              Instruction Window:
                Area = 1.00996 mm^2
                Peak Dynamic = 0.781622 W
                Subthreshold Leakage = 0.0800117 W
                Subthreshold Leakage with power gating = 0.0455351 W
                Gate Leakage = 0.00529112 W
                Runtime Dynamic = 0 W

              FP Instruction Window:
                Area = 0.328073 mm^2
                Peak Dynamic = 0.454803 W
                Subthreshold Leakage = 0.017004 W
                Subthreshold Leakage with power gating = 0.00962066 W
                Gate Leakage = 0.00115349 W
                Runtime Dynamic = 0 W

              ROB:
                Area = 0.841232 mm^2
                Peak Dynamic = 0.586059 W
                Subthreshold Leakage = 0.0178624 W
                Subthreshold Leakage with power gating = 0.00897339 W
                Gate Leakage = 0.000856399 W
                Runtime Dynamic = 0 W

          Integer ALUs (Count: 6 ):
            Area = 0.47087 mm^2
            Peak Dynamic = 0 W
            Subthreshold Leakage = 0.40222 W
            Subthreshold Leakage with power gating = 0.150833 W
            Gate Leakage = 0.0265291 W
            Runtime Dynamic = 0.101344 W

          Floating Point Units (FPUs) (Count: 2 ):
            Area = 4.6585 mm^2
            Peak Dynamic = 0 W
            Subthreshold Leakage = 0.994829 W
            Subthreshold Leakage with power gating = 0.373061 W
            Gate Leakage = 0.0656156 W
            Runtime Dynamic = 0.304033 W

          Complex ALUs (Mul/Div) (Count: 1 ):
            Area = 0.235435 mm^2
            Peak Dynamic = 0 W
            Subthreshold Leakage = 0.20111 W
            Subthreshold Leakage with power gating = 0.0754163 W
            Gate Leakage = 0.0132646 W
            Runtime Dynamic = 0.202689 W

          Results Broadcast Bus:
            Area Overhead = 0.042151 mm^2
            Peak Dynamic = 0 W
            Subthreshold Leakage = 0.0877271 W
            Subthreshold Leakage with power gating = 0.0328977 W
            Gate Leakage = 0.00578619 W
            Runtime Dynamic = 0 W

*****************************************************************************************
Core:
      Area = 26.211 mm^2
      Peak Dynamic = 4.8961 W
      Subthreshold Leakage = 5.19237 W
      Subthreshold Leakage with power gating = 2.0981 W
      Gate Leakage = 0.335282 W
      Runtime Dynamic = 0.608067 W

      Instruction Fetch Unit:
        Area = 4.50679 mm^2
        Peak Dynamic = 0.834028 W
        Subthreshold Leakage = 0.798298 W
        Subthreshold Leakage with power gating = 0.356801 W
        Gate Leakage = 0.0429985 W
        Runtime Dynamic = 1.76368e-07 W

          Instruction Cache:
            Area = 1.79307 mm^2
            Peak Dynamic = 0 W
            Subthreshold Leakage = 0.232732 W
            Subthreshold Leakage with power gating = 0.128644 W
            Gate Leakage = 0.0138816 W
            Runtime Dynamic = 0 W

          Branch Target Buffer:
            Area = 0.64954 mm^2
            Peak Dynamic = 0.0668673 W
            Subthreshold Leakage = 0.0811682 W
            Subthreshold Leakage with power gating = 0.0435357 W
            Gate Leakage = 0.00272758 W
            Runtime Dynamic = 0 W

          Branch Predictor:
            Area = 0.138516 mm^2
            Peak Dynamic = 0.0224751 W
            Subthreshold Leakage = 0.0199703 W
            Subthreshold Leakage with power gating = 0.0103282 W
            Gate Leakage = 0.000757657 W
            Runtime Dynamic = 0 W

              Global Predictor:
                Area = 0.0435221 mm^2
                Peak Dynamic = 0.00634701 W
                Subthreshold Leakage = 0.00759719 W
                Subthreshold Leakage with power gating = 0.0039236 W
                Gate Leakage = 0.000278362 W
                Runtime Dynamic = 0 W

              Local Predictor:
              L1_Local Predictor:
                Area = 0.0257064 mm^2
                Peak Dynamic = 0.00535995 W
                Subthreshold Leakage = 0.00384344 W
                Subthreshold Leakage with power gating = 0.00198631 W
                Gate Leakage = 0.000154548 W
                Runtime Dynamic = 0 W

              L2_Local Predictor:
                Area = 0.0151917 mm^2
                Peak Dynamic = 0.00198288 W
                Subthreshold Leakage = 0.00181347 W
                Subthreshold Leakage with power gating = 0.000957045 W
                Gate Leakage = 8.00196e-05 W
                Runtime Dynamic = 0 W

              Chooser:
                Area = 0.0435221 mm^2
                Peak Dynamic = 0.00634701 W
                Subthreshold Leakage = 0.00759719 W
                Subthreshold Leakage with power gating = 0.0039236 W
                Gate Leakage = 0.000278362 W
                Runtime Dynamic = 0 W

              RAS:
                Area = 0.0105732 mm^2
                Peak Dynamic = 0.00442114 W
                Subthreshold Leakage = 0.000932505 W
                Subthreshold Leakage with power gating = 0.000494733 W
                Gate Leakage = 4.63858e-05 W
                Runtime Dynamic = 0 W

          Instruction Buffer:
            Area = 0.0226323 mm^2
            Peak Dynamic = 0.22813 W
            Subthreshold Leakage = 0.00151885 W
            Subthreshold Leakage with power gating = 0.000701682 W
            Gate Leakage = 6.83558e-05 W
            Runtime Dynamic = 0 W

          Instruction Decoder:
            Area = 1.85799 mm^2
            Peak Dynamic = 0.516556 W
            Subthreshold Leakage = 0.442943 W
            Subthreshold Leakage with power gating = 0.166104 W
            Gate Leakage = 0.0222493 W
            Runtime Dynamic = 0 W

      Renaming Unit:
        Area = 0.369768 mm^2
        Peak Dynamic = 1.71492 W
        Subthreshold Leakage = 0.070483 W
        Subthreshold Leakage with power gating = 0.0362779 W
        Gate Leakage = 0.00863632 W
        Runtime Dynamic = 1.76368e-07 W

          Int Front End RAT:
            Area = 0.114751 mm^2
            Peak Dynamic = 0.326861 W
            Subthreshold Leakage = 0.00611897 W
            Subthreshold Leakage with power gating = 0.00348781 W
            Gate Leakage = 0.00038343 W
            Runtime Dynamic = 0 W

          FP Front End RAT:
            Area = 0.168486 mm^2
            Peak Dynamic = 1.2538 W
            Subthreshold Leakage = 0.0437281 W
            Subthreshold Leakage with power gating = 0.024925 W
            Gate Leakage = 0.00489731 W
            Runtime Dynamic = 0 W

          Free List:
            Area = 0.0414755 mm^2
            Peak Dynamic = 0.0150874 W
            Subthreshold Leakage = 0.000670426 W
            Subthreshold Leakage with power gating = 0.000377987 W
            Gate Leakage = 4.15911e-05 W
            Runtime Dynamic = 0 W

      Load Store Unit:
        Area = 8.54154 mm^2
        Peak Dynamic = 0.465083 W
        Subthreshold Leakage = 0.569794 W
        Subthreshold Leakage with power gating = 0.270964 W
        Gate Leakage = 0.0325937 W
        Runtime Dynamic = 1.76368e-07 W

          Data Cache:
            Area = 6.84535 mm^2
            Peak Dynamic = 0.465083 W
            Subthreshold Leakage = 0.527675 W
            Subthreshold Leakage with power gating = 0.25085 W
            Gate Leakage = 0.0279261 W
            Runtime Dynamic = 0 W

          LoadQ:
            Area = 0.0836782 mm^2
            Peak Dynamic = 0 W
            Subthreshold Leakage = 0.00941961 W
            Subthreshold Leakage with power gating = 0.00536918 W
            Gate Leakage = 0.00059896 W
            Runtime Dynamic = 0 W

          StoreQ:
            Area = 0.100468 mm^2
            Peak Dynamic = 0 W
            Subthreshold Leakage = 0.0127338 W
            Subthreshold Leakage with power gating = 0.00725825 W
            Gate Leakage = 0.000754661 W
            Runtime Dynamic = 0 W

      Memory Management Unit:
        Area = 0.19411 mm^2
        Peak Dynamic = 0.0595858 W
        Subthreshold Leakage = 0.045089 W
        Subthreshold Leakage with power gating = 0.0218074 W
        Gate Leakage = 0.00476399 W
        Runtime Dynamic = 1.76368e-07 W

          Itlb:
            Area = 0.0610827 mm^2
            Peak Dynamic = 0 W
            Subthreshold Leakage = 0.00955352 W
            Subthreshold Leakage with power gating = 0.00544551 W
            Gate Leakage = 0.000562721 W
            Runtime Dynamic = 0 W

          Dtlb:
            Area = 0.0879726 mm^2
            Peak Dynamic = 0 W
            Subthreshold Leakage = 0.0155699 W
            Subthreshold Leakage with power gating = 0.00887485 W
            Gate Leakage = 0.00088729 W
            Runtime Dynamic = 0 W

      Execution Unit:
        Area = 8.20208 mm^2
        Peak Dynamic = 1.82248 W
        Subthreshold Leakage = 1.83087 W
        Subthreshold Leakage with power gating = 0.70806 W
        Gate Leakage = 0.122433 W
        Runtime Dynamic = 0.608066 W

          Register Files:
            Area = 0.570804 mm^2
            Peak Dynamic = 0 W
            Subthreshold Leakage = 0.0101387 W
            Subthreshold Leakage with power gating = 0.00423643 W
            Gate Leakage = 0.000622708 W
            Runtime Dynamic = 0 W

              Integer RF:
                Area = 0.362673 mm^2
                Peak Dynamic = 0 W
                Subthreshold Leakage = 0.00614175 W
                Subthreshold Leakage with power gating = 0.00246675 W
                Gate Leakage = 0.00038992 W
                Runtime Dynamic = 0 W

              Floating Point RF:
                Area = 0.208131 mm^2
                Peak Dynamic = 0 W
                Subthreshold Leakage = 0.00399698 W
                Subthreshold Leakage with power gating = 0.00176968 W
                Gate Leakage = 0.000232788 W
                Runtime Dynamic = 0 W

          Instruction Scheduler:
            Area = 2.17927 mm^2
            Peak Dynamic = 1.82248 W
            Subthreshold Leakage = 0.114878 W
            Subthreshold Leakage with power gating = 0.0641291 W
            Gate Leakage = 0.00730101 W
            Runtime Dynamic = 0 W

              Instruction Window:
                Area = 1.00996 mm^2
                Peak Dynamic = 0.781622 W
                Subthreshold Leakage = 0.0800117 W
                Subthreshold Leakage with power gating = 0.0455351 W
                Gate Leakage = 0.00529112 W
                Runtime Dynamic = 0 W

              FP Instruction Window:
                Area = 0.328073 mm^2
                Peak Dynamic = 0.454803 W
                Subthreshold Leakage = 0.017004 W
                Subthreshold Leakage with power gating = 0.00962066 W
                Gate Leakage = 0.00115349 W
                Runtime Dynamic = 0 W

              ROB:
                Area = 0.841232 mm^2
                Peak Dynamic = 0.586059 W
                Subthreshold Leakage = 0.0178624 W
                Subthreshold Leakage with power gating = 0.00897339 W
                Gate Leakage = 0.000856399 W
                Runtime Dynamic = 0 W

          Integer ALUs (Count: 6 ):
            Area = 0.47087 mm^2
            Peak Dynamic = 0 W
            Subthreshold Leakage = 0.40222 W
            Subthreshold Leakage with power gating = 0.150833 W
            Gate Leakage = 0.0265291 W
            Runtime Dynamic = 0.101344 W

          Floating Point Units (FPUs) (Count: 2 ):
            Area = 4.6585 mm^2
            Peak Dynamic = 0 W
            Subthreshold Leakage = 0.994829 W
            Subthreshold Leakage with power gating = 0.373061 W
            Gate Leakage = 0.0656156 W
            Runtime Dynamic = 0.304033 W

          Complex ALUs (Mul/Div) (Count: 1 ):
            Area = 0.235435 mm^2
            Peak Dynamic = 0 W
            Subthreshold Leakage = 0.20111 W
            Subthreshold Leakage with power gating = 0.0754163 W
            Gate Leakage = 0.0132646 W
            Runtime Dynamic = 0.202689 W

          Results Broadcast Bus:
            Area Overhead = 0.042151 mm^2
            Peak Dynamic = 0 W
            Subthreshold Leakage = 0.0877271 W
            Subthreshold Leakage with power gating = 0.0328977 W
            Gate Leakage = 0.00578619 W
            Runtime Dynamic = 0 W

*****************************************************************************************
L2
      Area = 4.53318 mm^2
      Peak Dynamic = 0.00622387 W
      Subthreshold Leakage = 0.393419 W
      Subthreshold Leakage with power gating = 0.189161 W
      Gate Leakage = 0.015464 W
      Runtime Dynamic = 0.00210623 W

*****************************************************************************************
L2
      Area = 4.53318 mm^2
      Peak Dynamic = 0 W
      Subthreshold Leakage = 0.393419 W
      Subthreshold Leakage with power gating = 0.189161 W
      Gate Leakage = 0.015464 W
      Runtime Dynamic = 1.11168e-06 W

*****************************************************************************************
BUSES
      Area = 1.47878 mm^2
      Peak Dynamic = 0 W
      Subthreshold Leakage = 0.165039 W
      Subthreshold Leakage with power gating = 0.0618895 W
      Gate Leakage = 0.0158266 W
      Runtime Dynamic = 0 W

      Bus: 
        Area = 1.47878 mm^2
        Peak Dynamic = 0 W
        Subthreshold Leakage = 0.165039 W
        Subthreshold Leakage with power gating = 0.0618895 W
        Gate Leakage = 0.0158266 W
        Runtime Dynamic = 0 W

*****************************************************************************************
